! Transformer definition
! ------------------------------------------------------------------------------------------------------------------
New Transformer.TR1 Buses=[SourceBus.1.2.3 1.1.2.3.0] Conns=[Delta Wye] kVs=[11 0.416] kVAs=[800 800] XHL=1 phases=3
! ------------------------------------------------------------------------------------------------------------------