! Transformer definition
! ------------------------------------------------------------------------------------------------------------------
New Transformer.TR1 Buses=[SourceBus.1.2.3 1.1.2.3.4] Conns=[Delta Wye] kVs=[11 0.416] kVAs=[800 800] XHL=1 phases=3
New Reactor.Grounding phases=1 bus1=1.4 bus2=1.0 R=0.0 X=1E-10
! ------------------------------------------------------------------------------------------------------------------