! Imported from Lines.txt, with modified linecodes
! ------------------------------------------------------------------------------------------
New Line.LINE0 Bus1=sourcebus.1.2.3 Bus2=1.1.2.3 phases=3 Linecode=LC8 Length=1 Units=m
New Line.LINE1 Bus1=1.1.2.3 Bus2=2.1.2.3 phases=3 Linecode=LC8 Length=0.25034 Units=m
New Line.LINE2 Bus1=2.1.2.3 Bus2=3.1.2.3 phases=3 Linecode=LC8 Length=0.087692 Units=m
New Line.LINE3 Bus1=3.1.2.3 Bus2=4.1.2.3 phases=3 Linecode=LC8 Length=0.088204 Units=m
New Line.LINE4 Bus1=4.1.2.3 Bus2=5.1.2.3 phases=3 Linecode=LC8 Length=0.087846 Units=m
New Line.LINE5 Bus1=5.1.2.3 Bus2=6.1.2.3 phases=3 Linecode=LC8 Length=0.087664 Units=m
New Line.LINE6 Bus1=6.1.2.3 Bus2=7.1.2.3 phases=3 Linecode=LC8 Length=0.088006 Units=m
New Line.LINE7 Bus1=7.1.2.3 Bus2=8.1.2.3 phases=3 Linecode=LC8 Length=0.088284 Units=m
New Line.LINE8 Bus1=8.1.2.3 Bus2=9.1.2.3 phases=3 Linecode=LC8 Length=1.184 Units=m
New Line.LINE9 Bus1=9.1.2.3 Bus2=10.1.2.3 phases=3 Linecode=LC8 Length=0.090934 Units=m
New Line.LINE10 Bus1=10.1.2.3 Bus2=11.1.2.3 phases=3 Linecode=LC8 Length=0.091088 Units=m
New Line.LINE11 Bus1=11.1.2.3 Bus2=12.1.2.3 phases=3 Linecode=LC8 Length=0.090244 Units=m
New Line.LINE12 Bus1=12.1.2.3 Bus2=13.1.2.3 phases=3 Linecode=LC8 Length=0.091788 Units=m
New Line.LINE13 Bus1=13.1.2.3 Bus2=14.1.2.3 phases=3 Linecode=LC8 Length=0.090139 Units=m
New Line.LINE14 Bus1=14.1.2.3 Bus2=15.1.2.3 phases=3 Linecode=LC8 Length=0.091219 Units=m
New Line.LINE15 Bus1=15.1.2.3 Bus2=16.1.2.3 phases=3 Linecode=LC8 Length=1.8973 Units=m
New Line.LINE16 Bus1=16.1.2.3 Bus2=17.1.2.3 phases=3 Linecode=LC8 Length=0.75676 Units=m
New Line.LINE17 Bus1=17.1.2.3 Bus2=18.1.2.3 phases=3 Linecode=LC8 Length=0.17114 Units=m
New Line.LINE18 Bus1=18.1.2.3 Bus2=19.1.2.3 phases=3 Linecode=LC8 Length=0.16172 Units=m
New Line.LINE19 Bus1=19.1.2.3 Bus2=20.1.2.3 phases=3 Linecode=LC8 Length=0.16415 Units=m
New Line.LINE20 Bus1=20.1.2.3 Bus2=21.1.2.3 phases=3 Linecode=LC8 Length=0.16964 Units=m
New Line.LINE21 Bus1=21.1.2.3 Bus2=22.1.2.3 phases=3 Linecode=LC8 Length=0.16236 Units=m
New Line.LINE22 Bus1=22.1.2.3 Bus2=23.1.2.3 phases=3 Linecode=LC8 Length=0.179 Units=m
New Line.LINE23 Bus1=23.1.2.3 Bus2=24.1.2.3 phases=3 Linecode=LC8 Length=0.19536 Units=m
New Line.LINE24 Bus1=24.1.2.3 Bus2=25.1.2.3 phases=3 Linecode=LC8 Length=0.086122 Units=m
New Line.LINE25 Bus1=25.1.2.3 Bus2=26.1.2.3 phases=3 Linecode=LC8 Length=0.098488 Units=m
New Line.LINE26 Bus1=26.1.2.3 Bus2=27.1.2.3 phases=3 Linecode=LC8 Length=0.28492 Units=m
New Line.LINE27 Bus1=27.1.2.3 Bus2=28.1.2.3 phases=3 Linecode=LC8 Length=0.25212 Units=m
New Line.LINE28 Bus1=28.1.2.3 Bus2=29.1.2.3 phases=3 Linecode=LC8 Length=0.3583 Units=m
New Line.LINE29 Bus1=29.1.2.3 Bus2=30.1.2.3 phases=3 Linecode=LC8 Length=0.28865 Units=m
New Line.LINE30 Bus1=30.1.2.3 Bus2=31.1.2.3 phases=3 Linecode=LC8 Length=0.27348 Units=m
New Line.LINE31 Bus1=31.1.2.3 Bus2=32.1.2.3 phases=3 Linecode=LC8 Length=0.3038 Units=m
New Line.LINE32 Bus1=32.1.2.3 Bus2=33.1.2.3 phases=3 Linecode=LC8 Length=0.2972 Units=m
New Line.LINE33 Bus1=33.1.2.3 Bus2=34.1.2.3 phases=3 Linecode=LC8 Length=4.1833 Units=m
New Line.LINE34 Bus1=34.1.2.3 Bus2=35.1.2.3 phases=3 Linecode=LC8 Length=0.13567 Units=m
New Line.LINE35 Bus1=35.1.2.3 Bus2=36.1.2.3 phases=3 Linecode=LC8 Length=0.13515 Units=m
New Line.LINE36 Bus1=36.1.2.3 Bus2=37.1.2.3 phases=3 Linecode=LC8 Length=0.13631 Units=m
New Line.LINE37 Bus1=37.1.2.3 Bus2=38.1.2.3 phases=3 Linecode=LC8 Length=0.1353 Units=m
New Line.LINE38 Bus1=38.1.2.3 Bus2=39.1.2.3 phases=3 Linecode=LC8 Length=17.0852 Units=m
New Line.LINE39 Bus1=39.1.2.3 Bus2=40.1.2.3 phases=3 Linecode=LC8 Length=2.3186 Units=m
New Line.LINE40 Bus1=40.1.2.3 Bus2=41.1.2.3 phases=3 Linecode=LC8 Length=3.5909 Units=m
New Line.LINE41 Bus1=41.1.2.3 Bus2=42.1.2.3 phases=3 Linecode=LC8 Length=0.13929 Units=m
New Line.LINE42 Bus1=42.1.2.3 Bus2=43.1.2.3 phases=3 Linecode=LC8 Length=0.13849 Units=m
New Line.LINE43 Bus1=43.1.2.3 Bus2=44.1.2.3 phases=3 Linecode=LC8 Length=0.13822 Units=m
New Line.LINE44 Bus1=44.1.2.3 Bus2=45.1.2.3 phases=3 Linecode=LC8 Length=0.13822 Units=m
New Line.LINE45 Bus1=45.1.2.3 Bus2=46.1.2.3 phases=3 Linecode=LC8 Length=18.204 Units=m
New Line.LINE46 Bus1=46.1.2.3 Bus2=47.1.2.3 phases=3 Linecode=LC1 Length=5.5555 Units=m
New Line.LINE47 Bus1=46.1.2.3 Bus2=48.1.2.3 phases=3 Linecode=LC8 Length=8.5177 Units=m
New Line.LINE48 Bus1=48.1.2.3 Bus2=49.1.2.3 phases=3 Linecode=LC8 Length=0.45492 Units=m
New Line.LINE49 Bus1=49.1.2.3 Bus2=50.1.2.3 phases=3 Linecode=LC8 Length=0.3764 Units=m
New Line.LINE50 Bus1=50.1.2.3 Bus2=51.1.2.3 phases=3 Linecode=LC8 Length=0.61547 Units=m
New Line.LINE51 Bus1=51.1.2.3 Bus2=52.1.2.3 phases=3 Linecode=LC8 Length=0.36412 Units=m
New Line.LINE52 Bus1=52.1.2.3 Bus2=53.1.2.3 phases=3 Linecode=LC8 Length=0.6905 Units=m
New Line.LINE53 Bus1=53.1.2.3 Bus2=54.1.2.3 phases=3 Linecode=LC8 Length=0.60751 Units=m
New Line.LINE54 Bus1=54.1.2.3 Bus2=55.1.2.3 phases=3 Linecode=LC8 Length=0.57937 Units=m
New Line.LINE55 Bus1=55.1.2.3 Bus2=56.1.2.3 phases=3 Linecode=LC8 Length=0.74947 Units=m
New Line.LINE56 Bus1=56.1.2.3 Bus2=57.1.2.3 phases=3 Linecode=LC8 Length=0.67886 Units=m
New Line.LINE57 Bus1=57.1.2.3 Bus2=58.1.2.3 phases=3 Linecode=LC8 Length=0.56541 Units=m
New Line.LINE58 Bus1=58.1.2.3 Bus2=59.1.2.3 phases=3 Linecode=LC8 Length=0.38 Units=m
New Line.LINE59 Bus1=59.1.2.3 Bus2=60.1.2.3 phases=3 Linecode=LC8 Length=0.64827 Units=m
New Line.LINE60 Bus1=60.1.2.3 Bus2=61.1.2.3 phases=3 Linecode=LC8 Length=0.37254 Units=m
New Line.LINE61 Bus1=61.1.2.3 Bus2=62.1.2.3 phases=3 Linecode=LC8 Length=0.463 Units=m
New Line.LINE62 Bus1=62.1.2.3 Bus2=63.1.2.3 phases=3 Linecode=LC8 Length=0.43214 Units=m
New Line.LINE63 Bus1=63.1.2.3 Bus2=64.1.2.3 phases=3 Linecode=LC8 Length=0.34861 Units=m
New Line.LINE64 Bus1=64.1.2.3 Bus2=65.1.2.3 phases=3 Linecode=LC8 Length=0.29602 Units=m
New Line.LINE65 Bus1=65.1.2.3 Bus2=66.1.2.3 phases=3 Linecode=LC8 Length=0.20679 Units=m
New Line.LINE66 Bus1=66.1.2.3 Bus2=67.1.2.3 phases=3 Linecode=LC8 Length=0.14287 Units=m
New Line.LINE67 Bus1=67.1.2.3 Bus2=68.1.2.3 phases=3 Linecode=LC8 Length=0.15109 Units=m
New Line.LINE68 Bus1=68.1.2.3 Bus2=69.1.2.3 phases=3 Linecode=LC8 Length=0.098412 Units=m
New Line.LINE69 Bus1=69.1.2.3 Bus2=70.1.2.3 phases=3 Linecode=LC8 Length=0.1386 Units=m
New Line.LINE70 Bus1=70.1.2.3 Bus2=71.1.2.3 phases=3 Linecode=LC8 Length=0.13813 Units=m
New Line.LINE71 Bus1=71.1.2.3 Bus2=72.1.2.3 phases=3 Linecode=LC8 Length=0.13892 Units=m
New Line.LINE72 Bus1=72.1.2.3 Bus2=73.1.2.3 phases=3 Linecode=LC8 Length=0.13787 Units=m
New Line.LINE73 Bus1=73.1.2.3 Bus2=74.1.2.3 phases=3 Linecode=LC8 Length=0.1424 Units=m
New Line.LINE74 Bus1=74.1.2.3 Bus2=75.1.2.3 phases=3 Linecode=LC8 Length=0.24763 Units=m
New Line.LINE75 Bus1=74.1.2.3 Bus2=76.1.2.3 phases=3 Linecode=LC8 Length=1.6457 Units=m
New Line.LINE76 Bus1=75.1.2.3 Bus2=77.1.2.3 phases=3 Linecode=LC1 Length=0.2336 Units=m
New Line.LINE77 Bus1=75.1.2.3 Bus2=78.1.2.3 phases=3 Linecode=LC8 Length=0.45379 Units=m
New Line.LINE78 Bus1=76.1.2.3 Bus2=79.1.2.3 phases=3 Linecode=LC8 Length=2.2548 Units=m
New Line.LINE79 Bus1=77.1.2.3 Bus2=80.1.2.3 phases=3 Linecode=LC1 Length=0.19535 Units=m
New Line.LINE80 Bus1=78.1.2.3 Bus2=81.1.2.3 phases=3 Linecode=LC8 Length=0.2717 Units=m
New Line.LINE81 Bus1=79.1.2.3 Bus2=82.1.2.3 phases=3 Linecode=LC8 Length=0.12542 Units=m
New Line.LINE82 Bus1=79.1.2.3 Bus2=83.1.2.3 phases=3 Linecode=LC1 Length=10.0938 Units=m
New Line.LINE83 Bus1=80.1.2.3 Bus2=84.1.2.3 phases=3 Linecode=LC1 Length=0.32797 Units=m
New Line.LINE84 Bus1=81.1.2.3 Bus2=85.1.2.3 phases=3 Linecode=LC8 Length=0.41293 Units=m
New Line.LINE85 Bus1=82.1.2.3 Bus2=86.1.2.3 phases=3 Linecode=LC8 Length=0.089989 Units=m
New Line.LINE86 Bus1=83.1.2.3 Bus2=87.1.2.3 phases=3 Linecode=LC1 Length=17.0875 Units=m
New Line.LINE87 Bus1=84.1.2.3 Bus2=88.1.2.3 phases=3 Linecode=LC1 Length=0.24253 Units=m
New Line.LINE88 Bus1=85.1.2.3 Bus2=89.1.2.3 phases=3 Linecode=LC8 Length=0.88576 Units=m
New Line.LINE89 Bus1=86.1.2.3 Bus2=90.1.2.3 phases=3 Linecode=LC8 Length=0.12929 Units=m
New Line.LINE90 Bus1=87.1.2.3 Bus2=91.1.2.3 phases=3 Linecode=LC1 Length=9.7833 Units=m
New Line.LINE91 Bus1=88.1.2.3 Bus2=92.1.2.3 phases=3 Linecode=LC1 Length=2.0909 Units=m
New Line.LINE92 Bus1=89.1.2.3 Bus2=93.1.2.3 phases=3 Linecode=LC8 Length=0.030806 Units=m
New Line.LINE93 Bus1=90.1.2.3 Bus2=94.1.2.3 phases=3 Linecode=LC8 Length=0.098616 Units=m
New Line.LINE94 Bus1=91.1.2.3 Bus2=95.1.2.3 phases=3 Linecode=LC1 Length=1.0657 Units=m
New Line.LINE95 Bus1=91.1.2.3 Bus2=96.1.2.3 phases=3 Linecode=LC1 Length=0.38303 Units=m
New Line.LINE96 Bus1=92.1.2.3 Bus2=97.1.2.3 phases=3 Linecode=LC1 Length=4.5338 Units=m
New Line.LINE97 Bus1=93.1.2.3 Bus2=98.1.2.3 phases=3 Linecode=LC8 Length=0.030017 Units=m
New Line.LINE98 Bus1=94.1.2.3 Bus2=99.1.2.3 phases=3 Linecode=LC8 Length=0.10164 Units=m
New Line.LINE99 Bus1=95.1.2.3 Bus2=100.1.2.3 phases=3 Linecode=LC1 Length=2.3057 Units=m
New Line.LINE100 Bus1=95.1.2.3 Bus2=101.1.2.3 phases=3 Linecode=LC2 Length=2.2376 Units=m
New Line.LINE101 Bus1=96.1.2.3 Bus2=102.1.2.3 phases=3 Linecode=LC1 Length=0.1918 Units=m
New Line.LINE102 Bus1=97.1.2.3 Bus2=103.1.2.3 phases=3 Linecode=LC1 Length=4.0865 Units=m
New Line.LINE103 Bus1=97.1.2.3 Bus2=104.1.2.3 phases=3 Linecode=LC1 Length=3.5756 Units=m
New Line.LINE104 Bus1=98.1.2.3 Bus2=105.1.2.3 phases=3 Linecode=LC8 Length=0.030414 Units=m
New Line.LINE105 Bus1=99.1.2.3 Bus2=106.1.2.3 phases=3 Linecode=LC8 Length=0.097416 Units=m
New Line.LINE106 Bus1=100.1.2.3 Bus2=107.1.2.3 phases=3 Linecode=LC1 Length=4.5165 Units=m
New Line.LINE107 Bus1=102.1.2.3 Bus2=108.1.2.3 phases=3 Linecode=LC1 Length=0.22738 Units=m
New Line.LINE108 Bus1=104.1.2.3 Bus2=109.1.2.3 phases=3 Linecode=LC1 Length=4.5521 Units=m
New Line.LINE109 Bus1=104.1.2.3 Bus2=110.1.2.3 phases=3 Linecode=LC1 Length=3.0192 Units=m
New Line.LINE110 Bus1=105.1.2.3 Bus2=111.1.2.3 phases=3 Linecode=LC8 Length=0.030083 Units=m
New Line.LINE111 Bus1=106.1.2.3 Bus2=112.1.2.3 phases=3 Linecode=LC8 Length=9.5146 Units=m
New Line.LINE112 Bus1=107.1.2.3 Bus2=113.1.2.3 phases=3 Linecode=LC1 Length=8.5896 Units=m
New Line.LINE113 Bus1=107.1.2.3 Bus2=114.1.2.3 phases=3 Linecode=LC1 Length=0.40242 Units=m
New Line.LINE114 Bus1=108.1.2.3 Bus2=115.1.2.3 phases=3 Linecode=LC1 Length=0.33937 Units=m
New Line.LINE115 Bus1=110.1.2.3 Bus2=116.1.2.3 phases=3 Linecode=LC1 Length=17.3779 Units=m
New Line.LINE116 Bus1=111.1.2.3 Bus2=117.1.2.3 phases=3 Linecode=LC8 Length=0.030529 Units=m
New Line.LINE117 Bus1=112.1.2.3 Bus2=118.1.2.3 phases=3 Linecode=LC8 Length=17.0876 Units=m
New Line.LINE118 Bus1=113.1.2.3 Bus2=119.1.2.3 phases=3 Linecode=LC1 Length=5.6104 Units=m
New Line.LINE119 Bus1=114.1.2.3 Bus2=120.1.2.3 phases=3 Linecode=LC1 Length=0.18886 Units=m
New Line.LINE120 Bus1=115.1.2.3 Bus2=121.1.2.3 phases=3 Linecode=LC1 Length=0.20787 Units=m
New Line.LINE121 Bus1=115.1.2.3 Bus2=122.1.2.3 phases=3 Linecode=LC1 Length=0.17175 Units=m
New Line.LINE122 Bus1=116.1.2.3 Bus2=123.1.2.3 phases=3 Linecode=LC1 Length=7.794 Units=m
New Line.LINE123 Bus1=117.1.2.3 Bus2=124.1.2.3 phases=3 Linecode=LC8 Length=0.030413 Units=m
New Line.LINE124 Bus1=118.1.2.3 Bus2=125.1.2.3 phases=3 Linecode=LC8 Length=6.0524 Units=m
New Line.LINE125 Bus1=119.1.2.3 Bus2=126.1.2.3 phases=3 Linecode=LC1 Length=6.4499 Units=m
New Line.LINE126 Bus1=120.1.2.3 Bus2=127.1.2.3 phases=3 Linecode=LC1 Length=0.2268 Units=m
New Line.LINE127 Bus1=121.1.2.3 Bus2=128.1.2.3 phases=3 Linecode=LC1 Length=0.19338 Units=m
New Line.LINE128 Bus1=122.1.2.3 Bus2=129.1.2.3 phases=3 Linecode=LC1 Length=0.14886 Units=m
New Line.LINE129 Bus1=123.1.2.3 Bus2=130.1.2.3 phases=3 Linecode=LC1 Length=0.89983 Units=m
New Line.LINE130 Bus1=124.1.2.3 Bus2=131.1.2.3 phases=3 Linecode=LC8 Length=0.061717 Units=m
New Line.LINE131 Bus1=125.1.2.3 Bus2=132.1.2.3 phases=3 Linecode=LC8 Length=0.36852 Units=m
New Line.LINE132 Bus1=127.1.2.3 Bus2=133.1.2.3 phases=3 Linecode=LC1 Length=0.077369 Units=m
New Line.LINE133 Bus1=128.1.2.3 Bus2=134.1.2.3 phases=3 Linecode=LC1 Length=0.25622 Units=m
New Line.LINE134 Bus1=129.1.2.3 Bus2=135.1.2.3 phases=3 Linecode=LC1 Length=0.12258 Units=m
New Line.LINE135 Bus1=130.1.2.3 Bus2=136.1.2.3 phases=3 Linecode=LC8 Length=2.1569 Units=m
New Line.LINE136 Bus1=130.1.2.3 Bus2=137.1.2.3 phases=3 Linecode=LC8 Length=0.11795 Units=m
New Line.LINE137 Bus1=131.1.2.3 Bus2=138.1.2.3 phases=3 Linecode=LC8 Length=0.16228 Units=m
New Line.LINE138 Bus1=132.1.2.3 Bus2=139.1.2.3 phases=3 Linecode=LC8 Length=0.11231 Units=m
New Line.LINE139 Bus1=133.1.2.3 Bus2=140.1.2.3 phases=3 Linecode=LC1 Length=0.21462 Units=m
New Line.LINE140 Bus1=134.1.2.3 Bus2=141.1.2.3 phases=3 Linecode=LC1 Length=4.3013 Units=m
New Line.LINE141 Bus1=135.1.2.3 Bus2=142.1.2.3 phases=3 Linecode=LC1 Length=0.12391 Units=m
New Line.LINE142 Bus1=136.1.2.3 Bus2=143.1.2.3 phases=3 Linecode=LC8 Length=2.3029 Units=m
New Line.LINE143 Bus1=137.1.2.3 Bus2=144.1.2.3 phases=3 Linecode=LC8 Length=0.109 Units=m
New Line.LINE144 Bus1=138.1.2.3 Bus2=145.1.2.3 phases=3 Linecode=LC8 Length=1.7275 Units=m
New Line.LINE145 Bus1=139.1.2.3 Bus2=146.1.2.3 phases=3 Linecode=LC8 Length=0.12104 Units=m
New Line.LINE146 Bus1=140.1.2.3 Bus2=147.1.2.3 phases=3 Linecode=LC1 Length=0.38629 Units=m
New Line.LINE147 Bus1=143.1.2.3 Bus2=148.1.2.3 phases=3 Linecode=LC8 Length=4.5137 Units=m
New Line.LINE148 Bus1=144.1.2.3 Bus2=149.1.2.3 phases=3 Linecode=LC8 Length=0.07 Units=m
New Line.LINE149 Bus1=145.1.2.3 Bus2=150.1.2.3 phases=3 Linecode=LC8 Length=15.3087 Units=m
New Line.LINE150 Bus1=146.1.2.3 Bus2=151.1.2.3 phases=3 Linecode=LC8 Length=0.13297 Units=m
New Line.LINE151 Bus1=148.1.2.3 Bus2=152.1.2.3 phases=3 Linecode=LC8 Length=8.5896 Units=m
New Line.LINE152 Bus1=149.1.2.3 Bus2=153.1.2.3 phases=3 Linecode=LC8 Length=0.10177 Units=m
New Line.LINE153 Bus1=150.1.2.3 Bus2=154.1.2.3 phases=3 Linecode=LC8 Length=3.7575 Units=m
New Line.LINE154 Bus1=151.1.2.3 Bus2=155.1.2.3 phases=3 Linecode=LC8 Length=0.17274 Units=m
New Line.LINE155 Bus1=152.1.2.3 Bus2=156.1.2.3 phases=3 Linecode=LC8 Length=5.609 Units=m
New Line.LINE156 Bus1=152.1.2.3 Bus2=157.1.2.3 phases=3 Linecode=LC2 Length=0.45379 Units=m
New Line.LINE157 Bus1=152.1.2.3 Bus2=158.1.2.3 phases=3 Linecode=LC8 Length=0.76663 Units=m
New Line.LINE158 Bus1=153.1.2.3 Bus2=159.1.2.3 phases=3 Linecode=LC8 Length=0.095442 Units=m
New Line.LINE159 Bus1=155.1.2.3 Bus2=160.1.2.3 phases=3 Linecode=LC8 Length=0.19257 Units=m
New Line.LINE160 Bus1=156.1.2.3 Bus2=161.1.2.3 phases=3 Linecode=LC8 Length=4.061 Units=m
New Line.LINE161 Bus1=156.1.2.3 Bus2=162.1.2.3 phases=3 Linecode=LC2 Length=0.71331 Units=m
New Line.LINE162 Bus1=157.1.2.3 Bus2=163.1.2.3 phases=3 Linecode=LC2 Length=0.14442 Units=m
New Line.LINE163 Bus1=158.1.2.3 Bus2=164.1.2.3 phases=3 Linecode=LC8 Length=0.30704 Units=m
New Line.LINE164 Bus1=159.1.2.3 Bus2=165.1.2.3 phases=3 Linecode=LC8 Length=1.1513 Units=m
New Line.LINE165 Bus1=160.1.2.3 Bus2=166.1.2.3 phases=3 Linecode=LC8 Length=0.17779 Units=m
New Line.LINE166 Bus1=161.1.2.3 Bus2=167.1.2.3 phases=3 Linecode=LC8 Length=2.9166 Units=m
New Line.LINE167 Bus1=162.1.2.3 Bus2=168.1.2.3 phases=3 Linecode=LC2 Length=0.176 Units=m
New Line.LINE168 Bus1=163.1.2.3 Bus2=169.1.2.3 phases=3 Linecode=LC2 Length=0.32014 Units=m
New Line.LINE169 Bus1=164.1.2.3 Bus2=170.1.2.3 phases=3 Linecode=LC8 Length=0.60118 Units=m
New Line.LINE170 Bus1=165.1.2.3 Bus2=171.1.2.3 phases=3 Linecode=LC8 Length=0.1259 Units=m
New Line.LINE171 Bus1=166.1.2.3 Bus2=172.1.2.3 phases=3 Linecode=LC8 Length=0.17053 Units=m
New Line.LINE172 Bus1=167.1.2.3 Bus2=173.1.2.3 phases=3 Linecode=LC8 Length=3.0315 Units=m
New Line.LINE173 Bus1=167.1.2.3 Bus2=174.1.2.3 phases=3 Linecode=LC6 Length=0.25979 Units=m
New Line.LINE174 Bus1=168.1.2.3 Bus2=175.1.2.3 phases=3 Linecode=LC2 Length=0.16006 Units=m
New Line.LINE175 Bus1=169.1.2.3 Bus2=176.1.2.3 phases=3 Linecode=LC2 Length=0.27618 Units=m
New Line.LINE176 Bus1=170.1.2.3 Bus2=177.1.2.3 phases=3 Linecode=LC8 Length=0.60291 Units=m
New Line.LINE177 Bus1=171.1.2.3 Bus2=178.1.2.3 phases=3 Linecode=LC8 Length=0.13318 Units=m
New Line.LINE178 Bus1=172.1.2.3 Bus2=179.1.2.3 phases=3 Linecode=LC8 Length=1.8688 Units=m
New Line.LINE179 Bus1=173.1.2.3 Bus2=180.1.2.3 phases=3 Linecode=LC8 Length=0.88425 Units=m
New Line.LINE180 Bus1=174.1.2.3 Bus2=181.1.2.3 phases=3 Linecode=LC6 Length=0.11098 Units=m
New Line.LINE181 Bus1=175.1.2.3 Bus2=182.1.2.3 phases=3 Linecode=LC2 Length=0.1254 Units=m
New Line.LINE182 Bus1=176.1.2.3 Bus2=183.1.2.3 phases=3 Linecode=LC2 Length=0.090802 Units=m
New Line.LINE183 Bus1=177.1.2.3 Bus2=184.1.2.3 phases=3 Linecode=LC8 Length=0.71445 Units=m
New Line.LINE184 Bus1=178.1.2.3 Bus2=185.1.2.3 phases=3 Linecode=LC8 Length=0.12333 Units=m
New Line.LINE185 Bus1=179.1.2.3 Bus2=186.1.2.3 phases=3 Linecode=LC8 Length=14.4574 Units=m
New Line.LINE186 Bus1=180.1.2.3 Bus2=187.1.2.3 phases=3 Linecode=LC8 Length=1.041 Units=m
New Line.LINE187 Bus1=181.1.2.3 Bus2=188.1.2.3 phases=3 Linecode=LC6 Length=0.082735 Units=m
New Line.LINE188 Bus1=182.1.2.3 Bus2=189.1.2.3 phases=3 Linecode=LC2 Length=1.9757 Units=m
New Line.LINE189 Bus1=183.1.2.3 Bus2=190.1.2.3 phases=3 Linecode=LC2 Length=0.32497 Units=m
New Line.LINE190 Bus1=184.1.2.3 Bus2=191.1.2.3 phases=3 Linecode=LC8 Length=0.15876 Units=m
New Line.LINE191 Bus1=185.1.2.3 Bus2=192.1.2.3 phases=3 Linecode=LC8 Length=1.7513 Units=m
New Line.LINE192 Bus1=186.1.2.3 Bus2=193.1.2.3 phases=3 Linecode=LC8 Length=2.5861 Units=m
New Line.LINE193 Bus1=187.1.2.3 Bus2=194.1.2.3 phases=3 Linecode=LC8 Length=0.81134 Units=m
New Line.LINE194 Bus1=188.1.2.3 Bus2=195.1.2.3 phases=3 Linecode=LC6 Length=0.047 Units=m
New Line.LINE195 Bus1=189.1.2.3 Bus2=196.1.2.3 phases=3 Linecode=LC2 Length=17.798 Units=m
New Line.LINE196 Bus1=189.1.2.3 Bus2=197.1.2.3 phases=3 Linecode=LC2 Length=10.0517 Units=m
New Line.LINE197 Bus1=189.1.2.3 Bus2=198.1.2.3 phases=3 Linecode=LC2 Length=8.0163 Units=m
New Line.LINE198 Bus1=189.1.2.3 Bus2=199.1.2.3 phases=3 Linecode=LC2 Length=7.2328 Units=m
New Line.LINE199 Bus1=190.1.2.3 Bus2=200.1.2.3 phases=3 Linecode=LC2 Length=0.23024 Units=m
New Line.LINE200 Bus1=191.1.2.3 Bus2=201.1.2.3 phases=3 Linecode=LC8 Length=0.15027 Units=m
New Line.LINE201 Bus1=192.1.2.3 Bus2=202.1.2.3 phases=3 Linecode=LC8 Length=5.4298 Units=m
New Line.LINE202 Bus1=193.1.2.3 Bus2=203.1.2.3 phases=3 Linecode=LC1 Length=0.25748 Units=m
New Line.LINE203 Bus1=193.1.2.3 Bus2=204.1.2.3 phases=3 Linecode=LC8 Length=2.0874 Units=m
New Line.LINE204 Bus1=194.1.2.3 Bus2=205.1.2.3 phases=3 Linecode=LC8 Length=0.48933 Units=m
New Line.LINE205 Bus1=195.1.2.3 Bus2=206.1.2.3 phases=3 Linecode=LC6 Length=0.041881 Units=m
New Line.LINE206 Bus1=200.1.2.3 Bus2=207.1.2.3 phases=3 Linecode=LC2 Length=0.66188 Units=m
New Line.LINE207 Bus1=201.1.2.3 Bus2=208.1.2.3 phases=3 Linecode=LC8 Length=0.20234 Units=m
New Line.LINE208 Bus1=203.1.2.3 Bus2=209.1.2.3 phases=3 Linecode=LC1 Length=0.062178 Units=m
New Line.LINE209 Bus1=204.1.2.3 Bus2=210.1.2.3 phases=3 Linecode=LC8 Length=4.7521 Units=m
New Line.LINE210 Bus1=204.1.2.3 Bus2=211.1.2.3 phases=3 Linecode=LC1 Length=0.25016 Units=m
New Line.LINE211 Bus1=205.1.2.3 Bus2=212.1.2.3 phases=3 Linecode=LC8 Length=0.58247 Units=m
New Line.LINE212 Bus1=206.1.2.3 Bus2=213.1.2.3 phases=3 Linecode=LC6 Length=0.048507 Units=m
New Line.LINE213 Bus1=208.1.2.3 Bus2=214.1.2.3 phases=3 Linecode=LC8 Length=0.25064 Units=m
New Line.LINE214 Bus1=209.1.2.3 Bus2=215.1.2.3 phases=3 Linecode=LC1 Length=0.062298 Units=m
New Line.LINE215 Bus1=210.1.2.3 Bus2=216.1.2.3 phases=3 Linecode=LC8 Length=10.8033 Units=m
New Line.LINE216 Bus1=210.1.2.3 Bus2=217.1.2.3 phases=3 Linecode=LC9 Length=0.74427 Units=m
New Line.LINE217 Bus1=211.1.2.3 Bus2=218.1.2.3 phases=3 Linecode=LC1 Length=0.234 Units=m
New Line.LINE218 Bus1=212.1.2.3 Bus2=219.1.2.3 phases=3 Linecode=LC8 Length=0.68857 Units=m
New Line.LINE219 Bus1=213.1.2.3 Bus2=220.1.2.3 phases=3 Linecode=LC6 Length=0.08544 Units=m
New Line.LINE220 Bus1=214.1.2.3 Bus2=221.1.2.3 phases=3 Linecode=LC8 Length=0.16263 Units=m
New Line.LINE221 Bus1=215.1.2.3 Bus2=222.1.2.3 phases=3 Linecode=LC1 Length=0.06265 Units=m
New Line.LINE222 Bus1=216.1.2.3 Bus2=223.1.2.3 phases=3 Linecode=LC8 Length=6.7616 Units=m
New Line.LINE223 Bus1=216.1.2.3 Bus2=224.1.2.3 phases=3 Linecode=LC6 Length=0.25878 Units=m
New Line.LINE224 Bus1=217.1.2.3 Bus2=225.1.2.3 phases=3 Linecode=LC9 Length=0.23503 Units=m
New Line.LINE225 Bus1=218.1.2.3 Bus2=226.1.2.3 phases=3 Linecode=LC1 Length=0.23774 Units=m
New Line.LINE226 Bus1=219.1.2.3 Bus2=227.1.2.3 phases=3 Linecode=LC8 Length=0.32544 Units=m
New Line.LINE227 Bus1=220.1.2.3 Bus2=228.1.2.3 phases=3 Linecode=LC6 Length=0.10126 Units=m
New Line.LINE228 Bus1=222.1.2.3 Bus2=229.1.2.3 phases=3 Linecode=LC1 Length=0.062031 Units=m
New Line.LINE229 Bus1=223.1.2.3 Bus2=230.1.2.3 phases=3 Linecode=LC8 Length=1.1808 Units=m
New Line.LINE230 Bus1=224.1.2.3 Bus2=231.1.2.3 phases=3 Linecode=LC6 Length=0.27078 Units=m
New Line.LINE231 Bus1=225.1.2.3 Bus2=232.1.2.3 phases=3 Linecode=LC9 Length=0.19226 Units=m
New Line.LINE232 Bus1=226.1.2.3 Bus2=233.1.2.3 phases=3 Linecode=LC1 Length=0.16683 Units=m
New Line.LINE233 Bus1=227.1.2.3 Bus2=234.1.2.3 phases=3 Linecode=LC8 Length=0.55882 Units=m
New Line.LINE234 Bus1=228.1.2.3 Bus2=235.1.2.3 phases=3 Linecode=LC6 Length=1.8057 Units=m
New Line.LINE235 Bus1=229.1.2.3 Bus2=236.1.2.3 phases=3 Linecode=LC1 Length=0.062371 Units=m
New Line.LINE236 Bus1=230.1.2.3 Bus2=237.1.2.3 phases=3 Linecode=LC8 Length=1.001 Units=m
New Line.LINE237 Bus1=231.1.2.3 Bus2=238.1.2.3 phases=3 Linecode=LC6 Length=0.39263 Units=m
New Line.LINE238 Bus1=232.1.2.3 Bus2=239.1.2.3 phases=3 Linecode=LC9 Length=0.39223 Units=m
New Line.LINE239 Bus1=233.1.2.3 Bus2=240.1.2.3 phases=3 Linecode=LC1 Length=0.18527 Units=m
New Line.LINE240 Bus1=234.1.2.3 Bus2=241.1.2.3 phases=3 Linecode=LC8 Length=0.45569 Units=m
New Line.LINE241 Bus1=235.1.2.3 Bus2=242.1.2.3 phases=3 Linecode=LC6 Length=0.21821 Units=m
New Line.LINE242 Bus1=236.1.2.3 Bus2=243.1.2.3 phases=3 Linecode=LC1 Length=0.062394 Units=m
New Line.LINE243 Bus1=237.1.2.3 Bus2=244.1.2.3 phases=3 Linecode=LC8 Length=8.1023 Units=m
New Line.LINE244 Bus1=237.1.2.3 Bus2=245.1.2.3 phases=3 Linecode=LC6 Length=0.23256 Units=m
New Line.LINE245 Bus1=238.1.2.3 Bus2=246.1.2.3 phases=3 Linecode=LC6 Length=0.11576 Units=m
New Line.LINE246 Bus1=239.1.2.3 Bus2=247.1.2.3 phases=3 Linecode=LC1 Length=31.1575 Units=m
New Line.LINE247 Bus1=240.1.2.3 Bus2=248.1.2.3 phases=3 Linecode=LC1 Length=3.8688 Units=m
New Line.LINE248 Bus1=241.1.2.3 Bus2=249.1.2.3 phases=3 Linecode=LC8 Length=0.92564 Units=m
New Line.LINE249 Bus1=242.1.2.3 Bus2=250.1.2.3 phases=3 Linecode=LC6 Length=0.12041 Units=m
New Line.LINE250 Bus1=243.1.2.3 Bus2=251.1.2.3 phases=3 Linecode=LC1 Length=0.062434 Units=m
New Line.LINE251 Bus1=244.1.2.3 Bus2=252.1.2.3 phases=3 Linecode=LC8 Length=8.4063 Units=m
New Line.LINE252 Bus1=244.1.2.3 Bus2=253.1.2.3 phases=3 Linecode=LC3 Length=0.44044 Units=m
New Line.LINE253 Bus1=245.1.2.3 Bus2=254.1.2.3 phases=3 Linecode=LC6 Length=0.45537 Units=m
New Line.LINE254 Bus1=248.1.2.3 Bus2=255.1.2.3 phases=3 Linecode=LC1 Length=15.1337 Units=m
New Line.LINE255 Bus1=249.1.2.3 Bus2=256.1.2.3 phases=3 Linecode=LC8 Length=0.69084 Units=m
New Line.LINE256 Bus1=250.1.2.3 Bus2=257.1.2.3 phases=3 Linecode=LC6 Length=0.165 Units=m
New Line.LINE257 Bus1=251.1.2.3 Bus2=258.1.2.3 phases=3 Linecode=LC1 Length=1.3808 Units=m
New Line.LINE258 Bus1=252.1.2.3 Bus2=259.1.2.3 phases=3 Linecode=LC8 Length=2.0543 Units=m
New Line.LINE259 Bus1=253.1.2.3 Bus2=260.1.2.3 phases=3 Linecode=LC3 Length=0.11183 Units=m
New Line.LINE260 Bus1=254.1.2.3 Bus2=261.1.2.3 phases=3 Linecode=LC6 Length=0.71896 Units=m
New Line.LINE261 Bus1=255.1.2.3 Bus2=262.1.2.3 phases=3 Linecode=LC1 Length=0.69461 Units=m
New Line.LINE262 Bus1=256.1.2.3 Bus2=263.1.2.3 phases=3 Linecode=LC8 Length=0.7936 Units=m
New Line.LINE263 Bus1=257.1.2.3 Bus2=264.1.2.3 phases=3 Linecode=LC6 Length=0.10771 Units=m
New Line.LINE264 Bus1=259.1.2.3 Bus2=265.1.2.3 phases=3 Linecode=LC8 Length=5.816 Units=m
New Line.LINE265 Bus1=259.1.2.3 Bus2=266.1.2.3 phases=3 Linecode=LC8 Length=0.30786 Units=m
New Line.LINE266 Bus1=260.1.2.3 Bus2=267.1.2.3 phases=3 Linecode=LC3 Length=0.14468 Units=m
New Line.LINE267 Bus1=262.1.2.3 Bus2=268.1.2.3 phases=3 Linecode=LC1 Length=3.3648 Units=m
New Line.LINE268 Bus1=262.1.2.3 Bus2=269.1.2.3 phases=3 Linecode=LC1 Length=10.9101 Units=m
New Line.LINE269 Bus1=262.1.2.3 Bus2=270.1.2.3 phases=3 Linecode=LC1 Length=10.9101 Units=m
New Line.LINE270 Bus1=262.1.2.3 Bus2=271.1.2.3 phases=3 Linecode=LC1 Length=10.9101 Units=m
New Line.LINE271 Bus1=262.1.2.3 Bus2=272.1.2.3 phases=3 Linecode=LC1 Length=10.9101 Units=m
New Line.LINE272 Bus1=262.1.2.3 Bus2=273.1.2.3 phases=3 Linecode=LC1 Length=17.4631 Units=m
New Line.LINE273 Bus1=263.1.2.3 Bus2=274.1.2.3 phases=3 Linecode=LC8 Length=0.341 Units=m
New Line.LINE274 Bus1=264.1.2.3 Bus2=275.1.2.3 phases=3 Linecode=LC6 Length=0.059406 Units=m
New Line.LINE275 Bus1=265.1.2.3 Bus2=276.1.2.3 phases=3 Linecode=LC8 Length=3.8867 Units=m
New Line.LINE276 Bus1=266.1.2.3 Bus2=277.1.2.3 phases=3 Linecode=LC8 Length=0.17538 Units=m
New Line.LINE277 Bus1=267.1.2.3 Bus2=278.1.2.3 phases=3 Linecode=LC3 Length=0.11183 Units=m
New Line.LINE278 Bus1=269.1.2.3 Bus2=279.1.2.3 phases=3 Linecode=LC1 Length=10.0886 Units=m
New Line.LINE279 Bus1=269.1.2.3 Bus2=280.1.2.3 phases=3 Linecode=LC1 Length=10.0886 Units=m
New Line.LINE280 Bus1=269.1.2.3 Bus2=281.1.2.3 phases=3 Linecode=LC1 Length=10.0886 Units=m
New Line.LINE281 Bus1=269.1.2.3 Bus2=282.1.2.3 phases=3 Linecode=LC1 Length=10.0886 Units=m
New Line.LINE282 Bus1=269.1.2.3 Bus2=283.1.2.3 phases=3 Linecode=LC1 Length=10.0886 Units=m
New Line.LINE283 Bus1=269.1.2.3 Bus2=284.1.2.3 phases=3 Linecode=LC1 Length=10.0886 Units=m
New Line.LINE284 Bus1=269.1.2.3 Bus2=285.1.2.3 phases=3 Linecode=LC1 Length=10.0886 Units=m
New Line.LINE285 Bus1=269.1.2.3 Bus2=286.1.2.3 phases=3 Linecode=LC1 Length=10.0886 Units=m
New Line.LINE286 Bus1=269.1.2.3 Bus2=287.1.2.3 phases=3 Linecode=LC1 Length=10.0886 Units=m
New Line.LINE287 Bus1=274.1.2.3 Bus2=288.1.2.3 phases=3 Linecode=LC8 Length=0.24239 Units=m
New Line.LINE288 Bus1=275.1.2.3 Bus2=289.1.2.3 phases=3 Linecode=LC6 Length=1.183 Units=m
New Line.LINE289 Bus1=276.1.2.3 Bus2=290.1.2.3 phases=3 Linecode=LC8 Length=3.431 Units=m
New Line.LINE290 Bus1=277.1.2.3 Bus2=291.1.2.3 phases=3 Linecode=LC8 Length=0.13851 Units=m
New Line.LINE291 Bus1=278.1.2.3 Bus2=292.1.2.3 phases=3 Linecode=LC3 Length=0.10722 Units=m
New Line.LINE292 Bus1=288.1.2.3 Bus2=293.1.2.3 phases=3 Linecode=LC8 Length=0.29808 Units=m
New Line.LINE293 Bus1=289.1.2.3 Bus2=294.1.2.3 phases=3 Linecode=LC6 Length=0.80789 Units=m
New Line.LINE294 Bus1=290.1.2.3 Bus2=295.1.2.3 phases=3 Linecode=LC8 Length=0.26227 Units=m
New Line.LINE295 Bus1=290.1.2.3 Bus2=296.1.2.3 phases=3 Linecode=LC8 Length=2.8592 Units=m
New Line.LINE296 Bus1=291.1.2.3 Bus2=297.1.2.3 phases=3 Linecode=LC8 Length=0.068411 Units=m
New Line.LINE297 Bus1=292.1.2.3 Bus2=298.1.2.3 phases=3 Linecode=LC3 Length=0.16475 Units=m
New Line.LINE298 Bus1=293.1.2.3 Bus2=299.1.2.3 phases=3 Linecode=LC8 Length=0.398 Units=m
New Line.LINE299 Bus1=295.1.2.3 Bus2=300.1.2.3 phases=3 Linecode=LC8 Length=0.40835 Units=m
New Line.LINE300 Bus1=296.1.2.3 Bus2=301.1.2.3 phases=3 Linecode=LC8 Length=8.0248 Units=m
New Line.LINE301 Bus1=298.1.2.3 Bus2=302.1.2.3 phases=3 Linecode=LC1 Length=19.2481 Units=m
New Line.LINE302 Bus1=298.1.2.3 Bus2=303.1.2.3 phases=3 Linecode=LC1 Length=19.2481 Units=m
New Line.LINE303 Bus1=298.1.2.3 Bus2=304.1.2.3 phases=3 Linecode=LC1 Length=19.2481 Units=m
New Line.LINE304 Bus1=298.1.2.3 Bus2=305.1.2.3 phases=3 Linecode=LC1 Length=19.2481 Units=m
New Line.LINE305 Bus1=298.1.2.3 Bus2=306.1.2.3 phases=3 Linecode=LC1 Length=19.2481 Units=m
New Line.LINE306 Bus1=298.1.2.3 Bus2=307.1.2.3 phases=3 Linecode=LC1 Length=19.2481 Units=m
New Line.LINE307 Bus1=298.1.2.3 Bus2=308.1.2.3 phases=3 Linecode=LC1 Length=19.2481 Units=m
New Line.LINE308 Bus1=298.1.2.3 Bus2=309.1.2.3 phases=3 Linecode=LC1 Length=19.2481 Units=m
New Line.LINE309 Bus1=298.1.2.3 Bus2=310.1.2.3 phases=3 Linecode=LC1 Length=19.2481 Units=m
New Line.LINE310 Bus1=298.1.2.3 Bus2=311.1.2.3 phases=3 Linecode=LC1 Length=19.2481 Units=m
New Line.LINE311 Bus1=298.1.2.3 Bus2=312.1.2.3 phases=3 Linecode=LC1 Length=19.2481 Units=m
New Line.LINE312 Bus1=298.1.2.3 Bus2=313.1.2.3 phases=3 Linecode=LC1 Length=13.1026 Units=m
New Line.LINE313 Bus1=299.1.2.3 Bus2=314.1.2.3 phases=3 Linecode=LC8 Length=0.12728 Units=m
New Line.LINE314 Bus1=301.1.2.3 Bus2=315.1.2.3 phases=3 Linecode=LC6 Length=0.11528 Units=m
New Line.LINE315 Bus1=301.1.2.3 Bus2=316.1.2.3 phases=3 Linecode=LC8 Length=4.7863 Units=m
New Line.LINE316 Bus1=302.1.2.3 Bus2=317.1.2.3 phases=3 Linecode=LC1 Length=17.5787 Units=m
New Line.LINE317 Bus1=314.1.2.3 Bus2=318.1.2.3 phases=3 Linecode=LC8 Length=0.19553 Units=m
New Line.LINE318 Bus1=315.1.2.3 Bus2=319.1.2.3 phases=3 Linecode=LC6 Length=0.12728 Units=m
New Line.LINE319 Bus1=316.1.2.3 Bus2=320.1.2.3 phases=3 Linecode=LC1 Length=5.763 Units=m
New Line.LINE320 Bus1=316.1.2.3 Bus2=321.1.2.3 phases=3 Linecode=LC8 Length=3.4932 Units=m
New Line.LINE321 Bus1=317.1.2.3 Bus2=322.1.2.3 phases=3 Linecode=LC9 Length=0.05374 Units=m
New Line.LINE322 Bus1=318.1.2.3 Bus2=323.1.2.3 phases=3 Linecode=LC8 Length=0.52421 Units=m
New Line.LINE323 Bus1=319.1.2.3 Bus2=324.1.2.3 phases=3 Linecode=LC6 Length=0.20336 Units=m
New Line.LINE324 Bus1=321.1.2.3 Bus2=325.1.2.3 phases=3 Linecode=LC6 Length=1.2212 Units=m
New Line.LINE325 Bus1=321.1.2.3 Bus2=326.1.2.3 phases=3 Linecode=LC8 Length=3.4932 Units=m
New Line.LINE326 Bus1=322.1.2.3 Bus2=327.1.2.3 phases=3 Linecode=LC9 Length=0.18976 Units=m
New Line.LINE327 Bus1=323.1.2.3 Bus2=328.1.2.3 phases=3 Linecode=LC8 Length=5.791 Units=m
New Line.LINE328 Bus1=324.1.2.3 Bus2=329.1.2.3 phases=3 Linecode=LC6 Length=0.33777 Units=m