! Imported from Lines.txt, with modified linecodes
! ------------------------------------------------------------------------------------------
New Line.LINE0 Bus1=sourcebus.1.2.3 Bus2=1.1.2.3 phases=3 Linecode=LC8 Length=1 Units=m
New Line.LINE1 Bus1=1.1.2.3 Bus2=2.1.2.3 phases=3 Linecode=LC8 Length=0.24969 Units=m
New Line.LINE2 Bus1=2.1.2.3 Bus2=3.1.2.3 phases=3 Linecode=LC8 Length=0.076368 Units=m
New Line.LINE3 Bus1=3.1.2.3 Bus2=4.1.2.3 phases=3 Linecode=LC8 Length=0.076026 Units=m
New Line.LINE4 Bus1=4.1.2.3 Bus2=5.1.2.3 phases=3 Linecode=LC8 Length=0.075585 Units=m
New Line.LINE5 Bus1=5.1.2.3 Bus2=6.1.2.3 phases=3 Linecode=LC8 Length=0.076243 Units=m
New Line.LINE6 Bus1=6.1.2.3 Bus2=7.1.2.3 phases=3 Linecode=LC8 Length=0.07912 Units=m
New Line.LINE7 Bus1=7.1.2.3 Bus2=8.1.2.3 phases=3 Linecode=LC8 Length=0.079605 Units=m
New Line.LINE8 Bus1=8.1.2.3 Bus2=9.1.2.3 phases=3 Linecode=LC8 Length=0.078006 Units=m
New Line.LINE9 Bus1=9.1.2.3 Bus2=10.1.2.3 phases=3 Linecode=LC8 Length=0.079209 Units=m
New Line.LINE10 Bus1=10.1.2.3 Bus2=11.1.2.3 phases=3 Linecode=LC8 Length=2.7307 Units=m
New Line.LINE11 Bus1=11.1.2.3 Bus2=12.1.2.3 phases=3 Linecode=LC8 Length=0.75329 Units=m
New Line.LINE12 Bus1=12.1.2.3 Bus2=13.1.2.3 phases=3 Linecode=LC8 Length=0.054452 Units=m
New Line.LINE13 Bus1=13.1.2.3 Bus2=14.1.2.3 phases=3 Linecode=LC8 Length=0.079813 Units=m
New Line.LINE14 Bus1=14.1.2.3 Bus2=15.1.2.3 phases=3 Linecode=LC8 Length=0.091241 Units=m
New Line.LINE15 Bus1=15.1.2.3 Bus2=16.1.2.3 phases=3 Linecode=LC8 Length=0.084481 Units=m
New Line.LINE16 Bus1=16.1.2.3 Bus2=17.1.2.3 phases=3 Linecode=LC8 Length=0.10283 Units=m
New Line.LINE17 Bus1=17.1.2.3 Bus2=18.1.2.3 phases=3 Linecode=LC8 Length=0.098046 Units=m
New Line.LINE18 Bus1=18.1.2.3 Bus2=19.1.2.3 phases=3 Linecode=LC8 Length=0.16095 Units=m
New Line.LINE19 Bus1=19.1.2.3 Bus2=20.1.2.3 phases=3 Linecode=LC8 Length=0.12665 Units=m
New Line.LINE20 Bus1=20.1.2.3 Bus2=21.1.2.3 phases=3 Linecode=LC8 Length=0.11039 Units=m
New Line.LINE21 Bus1=21.1.2.3 Bus2=22.1.2.3 phases=3 Linecode=LC8 Length=0.26318 Units=m
New Line.LINE22 Bus1=22.1.2.3 Bus2=23.1.2.3 phases=3 Linecode=LC8 Length=0.25156 Units=m
New Line.LINE23 Bus1=23.1.2.3 Bus2=24.1.2.3 phases=3 Linecode=LC8 Length=0.27465 Units=m
New Line.LINE24 Bus1=24.1.2.3 Bus2=25.1.2.3 phases=3 Linecode=LC8 Length=0.22971 Units=m
New Line.LINE25 Bus1=25.1.2.3 Bus2=26.1.2.3 phases=3 Linecode=LC8 Length=0.2956 Units=m
New Line.LINE26 Bus1=26.1.2.3 Bus2=27.1.2.3 phases=3 Linecode=LC8 Length=0.30487 Units=m
New Line.LINE27 Bus1=27.1.2.3 Bus2=28.1.2.3 phases=3 Linecode=LC8 Length=4.1875 Units=m
New Line.LINE28 Bus1=28.1.2.3 Bus2=29.1.2.3 phases=3 Linecode=LC8 Length=0.24413 Units=m
New Line.LINE29 Bus1=29.1.2.3 Bus2=30.1.2.3 phases=3 Linecode=LC8 Length=0.2439 Units=m
New Line.LINE30 Bus1=30.1.2.3 Bus2=31.1.2.3 phases=3 Linecode=LC8 Length=0.24351 Units=m
New Line.LINE31 Bus1=31.1.2.3 Bus2=32.1.2.3 phases=3 Linecode=LC8 Length=0.24359 Units=m
New Line.LINE32 Bus1=32.1.2.3 Bus2=33.1.2.3 phases=3 Linecode=LC8 Length=19.8119 Units=m
New Line.LINE33 Bus1=33.1.2.3 Bus2=34.1.2.3 phases=3 Linecode=LC8 Length=3.0017 Units=m
New Line.LINE34 Bus1=34.1.2.3 Bus2=35.1.2.3 phases=3 Linecode=LC8 Length=0.11735 Units=m
New Line.LINE35 Bus1=35.1.2.3 Bus2=36.1.2.3 phases=3 Linecode=LC8 Length=0.11157 Units=m
New Line.LINE36 Bus1=36.1.2.3 Bus2=37.1.2.3 phases=3 Linecode=LC8 Length=0.11049 Units=m
New Line.LINE37 Bus1=37.1.2.3 Bus2=38.1.2.3 phases=3 Linecode=LC8 Length=0.11822 Units=m
New Line.LINE38 Bus1=38.1.2.3 Bus2=39.1.2.3 phases=3 Linecode=LC8 Length=26.1916 Units=m
New Line.LINE39 Bus1=39.1.2.3 Bus2=40.1.2.3 phases=3 Linecode=LC8 Length=0.13083 Units=m
New Line.LINE40 Bus1=40.1.2.3 Bus2=41.1.2.3 phases=3 Linecode=LC8 Length=0.13119 Units=m
New Line.LINE41 Bus1=41.1.2.3 Bus2=42.1.2.3 phases=3 Linecode=LC8 Length=0.13027 Units=m
New Line.LINE42 Bus1=42.1.2.3 Bus2=43.1.2.3 phases=3 Linecode=LC8 Length=0.13073 Units=m
New Line.LINE43 Bus1=43.1.2.3 Bus2=44.1.2.3 phases=3 Linecode=LC8 Length=0.13131 Units=m
New Line.LINE44 Bus1=44.1.2.3 Bus2=45.1.2.3 phases=3 Linecode=LC8 Length=0.13075 Units=m
New Line.LINE45 Bus1=45.1.2.3 Bus2=46.1.2.3 phases=3 Linecode=LC8 Length=12.3242 Units=m
New Line.LINE46 Bus1=46.1.2.3 Bus2=47.1.2.3 phases=3 Linecode=LC8 Length=0.089562 Units=m
New Line.LINE47 Bus1=47.1.2.3 Bus2=48.1.2.3 phases=3 Linecode=LC8 Length=0.088549 Units=m
New Line.LINE48 Bus1=48.1.2.3 Bus2=49.1.2.3 phases=3 Linecode=LC8 Length=0.089404 Units=m
New Line.LINE49 Bus1=49.1.2.3 Bus2=50.1.2.3 phases=3 Linecode=LC8 Length=6.9003 Units=m
New Line.LINE50 Bus1=50.1.2.3 Bus2=51.1.2.3 phases=3 Linecode=LC8 Length=4.915 Units=m
New Line.LINE51 Bus1=51.1.2.3 Bus2=52.1.2.3 phases=3 Linecode=LC8 Length=8.2889 Units=m
New Line.LINE52 Bus1=52.1.2.3 Bus2=53.1.2.3 phases=3 Linecode=LC8 Length=0.082202 Units=m
New Line.LINE53 Bus1=53.1.2.3 Bus2=54.1.2.3 phases=3 Linecode=LC8 Length=0.081841 Units=m
New Line.LINE54 Bus1=54.1.2.3 Bus2=55.1.2.3 phases=3 Linecode=LC8 Length=0.081272 Units=m
New Line.LINE55 Bus1=55.1.2.3 Bus2=56.1.2.3 phases=3 Linecode=LC8 Length=0.081883 Units=m
New Line.LINE56 Bus1=56.1.2.3 Bus2=57.1.2.3 phases=3 Linecode=LC8 Length=0.082006 Units=m
New Line.LINE57 Bus1=57.1.2.3 Bus2=58.1.2.3 phases=3 Linecode=LC8 Length=0.080145 Units=m
New Line.LINE58 Bus1=58.1.2.3 Bus2=59.1.2.3 phases=3 Linecode=LC8 Length=3.582 Units=m
New Line.LINE59 Bus1=59.1.2.3 Bus2=60.1.2.3 phases=3 Linecode=LC8 Length=0.097144 Units=m
New Line.LINE60 Bus1=60.1.2.3 Bus2=61.1.2.3 phases=3 Linecode=LC8 Length=0.097417 Units=m
New Line.LINE61 Bus1=61.1.2.3 Bus2=62.1.2.3 phases=3 Linecode=LC8 Length=0.096259 Units=m
New Line.LINE62 Bus1=62.1.2.3 Bus2=63.1.2.3 phases=3 Linecode=LC8 Length=22.6097 Units=m
New Line.LINE63 Bus1=63.1.2.3 Bus2=64.1.2.3 phases=3 Linecode=LC8 Length=0.48947 Units=m
New Line.LINE64 Bus1=64.1.2.3 Bus2=65.1.2.3 phases=3 Linecode=LC8 Length=0.096835 Units=m
New Line.LINE65 Bus1=65.1.2.3 Bus2=66.1.2.3 phases=3 Linecode=LC8 Length=0.095755 Units=m
New Line.LINE66 Bus1=66.1.2.3 Bus2=67.1.2.3 phases=3 Linecode=LC8 Length=0.096773 Units=m
New Line.LINE67 Bus1=67.1.2.3 Bus2=68.1.2.3 phases=3 Linecode=LC8 Length=0.096083 Units=m
New Line.LINE68 Bus1=68.1.2.3 Bus2=69.1.2.3 phases=3 Linecode=LC8 Length=0.096177 Units=m
New Line.LINE69 Bus1=69.1.2.3 Bus2=70.1.2.3 phases=3 Linecode=LC8 Length=0.096462 Units=m
New Line.LINE70 Bus1=70.1.2.3 Bus2=71.1.2.3 phases=3 Linecode=LC8 Length=0.096384 Units=m
New Line.LINE71 Bus1=71.1.2.3 Bus2=72.1.2.3 phases=3 Linecode=LC8 Length=0.097 Units=m
New Line.LINE72 Bus1=72.1.2.3 Bus2=73.1.2.3 phases=3 Linecode=LC8 Length=0.93275 Units=m
New Line.LINE73 Bus1=73.1.2.3 Bus2=74.1.2.3 phases=3 Linecode=LC8 Length=0.28658 Units=m
New Line.LINE74 Bus1=74.1.2.3 Bus2=75.1.2.3 phases=3 Linecode=LC8 Length=0.28678 Units=m
New Line.LINE75 Bus1=75.1.2.3 Bus2=76.1.2.3 phases=3 Linecode=LC8 Length=0.28768 Units=m
New Line.LINE76 Bus1=76.1.2.3 Bus2=77.1.2.3 phases=3 Linecode=LC8 Length=0.11201 Units=m
New Line.LINE77 Bus1=77.1.2.3 Bus2=78.1.2.3 phases=3 Linecode=LC8 Length=0.54353 Units=m
New Line.LINE78 Bus1=77.1.2.3 Bus2=79.1.2.3 phases=3 Linecode=LC8 Length=4.2441 Units=m
New Line.LINE79 Bus1=78.1.2.3 Bus2=80.1.2.3 phases=3 Linecode=LC8 Length=6.1984 Units=m
New Line.LINE80 Bus1=78.1.2.3 Bus2=81.1.2.3 phases=3 Linecode=LC6 Length=0.50341 Units=m
New Line.LINE81 Bus1=79.1.2.3 Bus2=82.1.2.3 phases=3 Linecode=LC8 Length=3.1074 Units=m
New Line.LINE82 Bus1=80.1.2.3 Bus2=83.1.2.3 phases=3 Linecode=LC8 Length=6.0698 Units=m
New Line.LINE83 Bus1=81.1.2.3 Bus2=84.1.2.3 phases=3 Linecode=LC6 Length=0.36769 Units=m
New Line.LINE84 Bus1=82.1.2.3 Bus2=85.1.2.3 phases=3 Linecode=LC8 Length=1.6641 Units=m
New Line.LINE85 Bus1=82.1.2.3 Bus2=86.1.2.3 phases=3 Linecode=LC8 Length=0.23603 Units=m
New Line.LINE86 Bus1=83.1.2.3 Bus2=87.1.2.3 phases=3 Linecode=LC8 Length=2.273 Units=m
New Line.LINE87 Bus1=83.1.2.3 Bus2=88.1.2.3 phases=3 Linecode=LC6 Length=0.31116 Units=m
New Line.LINE88 Bus1=84.1.2.3 Bus2=89.1.2.3 phases=3 Linecode=LC6 Length=0.2198 Units=m
New Line.LINE89 Bus1=85.1.2.3 Bus2=90.1.2.3 phases=3 Linecode=LC8 Length=1.3729 Units=m
New Line.LINE90 Bus1=85.1.2.3 Bus2=91.1.2.3 phases=3 Linecode=LC2 Length=0.28982 Units=m
New Line.LINE91 Bus1=85.1.2.3 Bus2=92.1.2.3 phases=3 Linecode=LC1 Length=0.060108 Units=m
New Line.LINE92 Bus1=86.1.2.3 Bus2=93.1.2.3 phases=3 Linecode=LC8 Length=0.23872 Units=m
New Line.LINE93 Bus1=87.1.2.3 Bus2=94.1.2.3 phases=3 Linecode=LC8 Length=4.3172 Units=m
New Line.LINE94 Bus1=88.1.2.3 Bus2=95.1.2.3 phases=3 Linecode=LC6 Length=0.192 Units=m
New Line.LINE95 Bus1=89.1.2.3 Bus2=96.1.2.3 phases=3 Linecode=LC6 Length=0.149 Units=m
New Line.LINE96 Bus1=90.1.2.3 Bus2=97.1.2.3 phases=3 Linecode=LC8 Length=6.399 Units=m
New Line.LINE97 Bus1=91.1.2.3 Bus2=98.1.2.3 phases=3 Linecode=LC2 Length=0.30514 Units=m
New Line.LINE98 Bus1=92.1.2.3 Bus2=99.1.2.3 phases=3 Linecode=LC1 Length=0.40817 Units=m
New Line.LINE99 Bus1=93.1.2.3 Bus2=100.1.2.3 phases=3 Linecode=LC8 Length=0.36326 Units=m
New Line.LINE100 Bus1=94.1.2.3 Bus2=101.1.2.3 phases=3 Linecode=LC8 Length=2.0688 Units=m
New Line.LINE101 Bus1=95.1.2.3 Bus2=102.1.2.3 phases=3 Linecode=LC6 Length=0.26388 Units=m
New Line.LINE102 Bus1=96.1.2.3 Bus2=103.1.2.3 phases=3 Linecode=LC6 Length=0.14311 Units=m
New Line.LINE103 Bus1=97.1.2.3 Bus2=104.1.2.3 phases=3 Linecode=LC8 Length=5.424 Units=m
New Line.LINE104 Bus1=98.1.2.3 Bus2=105.1.2.3 phases=3 Linecode=LC2 Length=0.384 Units=m
New Line.LINE105 Bus1=99.1.2.3 Bus2=106.1.2.3 phases=3 Linecode=LC1 Length=0.19096 Units=m
New Line.LINE106 Bus1=100.1.2.3 Bus2=107.1.2.3 phases=3 Linecode=LC8 Length=0.22747 Units=m
New Line.LINE107 Bus1=101.1.2.3 Bus2=108.1.2.3 phases=3 Linecode=LC8 Length=1.8308 Units=m
New Line.LINE108 Bus1=101.1.2.3 Bus2=109.1.2.3 phases=3 Linecode=LC6 Length=0.54344 Units=m
New Line.LINE109 Bus1=102.1.2.3 Bus2=110.1.2.3 phases=3 Linecode=LC6 Length=0.21143 Units=m
New Line.LINE110 Bus1=103.1.2.3 Bus2=111.1.2.3 phases=3 Linecode=LC6 Length=0.44074 Units=m
New Line.LINE111 Bus1=104.1.2.3 Bus2=112.1.2.3 phases=3 Linecode=LC8 Length=2.5058 Units=m
New Line.LINE112 Bus1=105.1.2.3 Bus2=113.1.2.3 phases=3 Linecode=LC2 Length=0.28131 Units=m
New Line.LINE113 Bus1=106.1.2.3 Bus2=114.1.2.3 phases=3 Linecode=LC1 Length=0.35534 Units=m
New Line.LINE114 Bus1=108.1.2.3 Bus2=115.1.2.3 phases=3 Linecode=LC8 Length=1.1611 Units=m
New Line.LINE115 Bus1=109.1.2.3 Bus2=116.1.2.3 phases=3 Linecode=LC6 Length=0.77015 Units=m
New Line.LINE116 Bus1=110.1.2.3 Bus2=117.1.2.3 phases=3 Linecode=LC6 Length=0.26388 Units=m
New Line.LINE117 Bus1=112.1.2.3 Bus2=118.1.2.3 phases=3 Linecode=LC8 Length=3.9962 Units=m
New Line.LINE118 Bus1=113.1.2.3 Bus2=119.1.2.3 phases=3 Linecode=LC2 Length=0.39993 Units=m
New Line.LINE119 Bus1=114.1.2.3 Bus2=120.1.2.3 phases=3 Linecode=LC1 Length=0.52725 Units=m
New Line.LINE120 Bus1=115.1.2.3 Bus2=121.1.2.3 phases=3 Linecode=LC8 Length=0.95753 Units=m
New Line.LINE121 Bus1=116.1.2.3 Bus2=122.1.2.3 phases=3 Linecode=LC6 Length=0.73621 Units=m
New Line.LINE122 Bus1=117.1.2.3 Bus2=123.1.2.3 phases=3 Linecode=LC6 Length=0.52306 Units=m
New Line.LINE123 Bus1=118.1.2.3 Bus2=124.1.2.3 phases=3 Linecode=LC8 Length=0.078006 Units=m
New Line.LINE124 Bus1=120.1.2.3 Bus2=125.1.2.3 phases=3 Linecode=LC1 Length=0.2499 Units=m
New Line.LINE125 Bus1=121.1.2.3 Bus2=126.1.2.3 phases=3 Linecode=LC8 Length=6.5214 Units=m
New Line.LINE126 Bus1=122.1.2.3 Bus2=127.1.2.3 phases=3 Linecode=LC6 Length=0.38629 Units=m
New Line.LINE127 Bus1=124.1.2.3 Bus2=128.1.2.3 phases=3 Linecode=LC8 Length=0.077821 Units=m
New Line.LINE128 Bus1=125.1.2.3 Bus2=129.1.2.3 phases=3 Linecode=LC1 Length=0.24356 Units=m
New Line.LINE129 Bus1=126.1.2.3 Bus2=130.1.2.3 phases=3 Linecode=LC8 Length=0.77156 Units=m
New Line.LINE130 Bus1=127.1.2.3 Bus2=131.1.2.3 phases=3 Linecode=LC6 Length=0.45255 Units=m
New Line.LINE131 Bus1=128.1.2.3 Bus2=132.1.2.3 phases=3 Linecode=LC8 Length=0.07762 Units=m
New Line.LINE132 Bus1=129.1.2.3 Bus2=133.1.2.3 phases=3 Linecode=LC1 Length=0.19315 Units=m
New Line.LINE133 Bus1=130.1.2.3 Bus2=134.1.2.3 phases=3 Linecode=LC8 Length=0.27323 Units=m
New Line.LINE134 Bus1=131.1.2.3 Bus2=135.1.2.3 phases=3 Linecode=LC6 Length=0.35299 Units=m
New Line.LINE135 Bus1=132.1.2.3 Bus2=136.1.2.3 phases=3 Linecode=LC8 Length=0.077162 Units=m
New Line.LINE136 Bus1=133.1.2.3 Bus2=137.1.2.3 phases=3 Linecode=LC1 Length=0.45258 Units=m
New Line.LINE137 Bus1=134.1.2.3 Bus2=138.1.2.3 phases=3 Linecode=LC6 Length=0.15384 Units=m
New Line.LINE138 Bus1=134.1.2.3 Bus2=139.1.2.3 phases=3 Linecode=LC8 Length=1.0679 Units=m
New Line.LINE139 Bus1=135.1.2.3 Bus2=140.1.2.3 phases=3 Linecode=LC6 Length=0.75577 Units=m
New Line.LINE140 Bus1=136.1.2.3 Bus2=141.1.2.3 phases=3 Linecode=LC8 Length=0.077415 Units=m
New Line.LINE141 Bus1=137.1.2.3 Bus2=142.1.2.3 phases=3 Linecode=LC1 Length=0.9533 Units=m
New Line.LINE142 Bus1=138.1.2.3 Bus2=143.1.2.3 phases=3 Linecode=LC6 Length=0.212 Units=m
New Line.LINE143 Bus1=139.1.2.3 Bus2=144.1.2.3 phases=3 Linecode=LC8 Length=0.80524 Units=m
New Line.LINE144 Bus1=140.1.2.3 Bus2=145.1.2.3 phases=3 Linecode=LC6 Length=2.0832 Units=m
New Line.LINE145 Bus1=141.1.2.3 Bus2=146.1.2.3 phases=3 Linecode=LC8 Length=0.077794 Units=m
New Line.LINE146 Bus1=142.1.2.3 Bus2=147.1.2.3 phases=3 Linecode=LC1 Length=0.52842 Units=m
New Line.LINE147 Bus1=143.1.2.3 Bus2=148.1.2.3 phases=3 Linecode=LC6 Length=0.21174 Units=m
New Line.LINE148 Bus1=144.1.2.3 Bus2=149.1.2.3 phases=3 Linecode=LC8 Length=2.5697 Units=m
New Line.LINE149 Bus1=145.1.2.3 Bus2=150.1.2.3 phases=3 Linecode=LC6 Length=0.23956 Units=m
New Line.LINE150 Bus1=145.1.2.3 Bus2=151.1.2.3 phases=3 Linecode=LC6 Length=0.79478 Units=m
New Line.LINE151 Bus1=146.1.2.3 Bus2=152.1.2.3 phases=3 Linecode=LC8 Length=0.077826 Units=m
New Line.LINE152 Bus1=147.1.2.3 Bus2=153.1.2.3 phases=3 Linecode=LC1 Length=0.24259 Units=m
New Line.LINE153 Bus1=148.1.2.3 Bus2=154.1.2.3 phases=3 Linecode=LC6 Length=0.21134 Units=m
New Line.LINE154 Bus1=149.1.2.3 Bus2=155.1.2.3 phases=3 Linecode=LC8 Length=1.8381 Units=m
New Line.LINE155 Bus1=150.1.2.3 Bus2=156.1.2.3 phases=3 Linecode=LC6 Length=0.039205 Units=m
New Line.LINE156 Bus1=152.1.2.3 Bus2=157.1.2.3 phases=3 Linecode=LC8 Length=0.077468 Units=m
New Line.LINE157 Bus1=153.1.2.3 Bus2=158.1.2.3 phases=3 Linecode=LC1 Length=0.15 Units=m
New Line.LINE158 Bus1=154.1.2.3 Bus2=159.1.2.3 phases=3 Linecode=LC6 Length=0.21186 Units=m
New Line.LINE159 Bus1=155.1.2.3 Bus2=160.1.2.3 phases=3 Linecode=LC8 Length=1.8746 Units=m
New Line.LINE160 Bus1=155.1.2.3 Bus2=161.1.2.3 phases=3 Linecode=LC6 Length=0.45927 Units=m
New Line.LINE161 Bus1=156.1.2.3 Bus2=162.1.2.3 phases=3 Linecode=LC6 Length=0.039113 Units=m
New Line.LINE162 Bus1=157.1.2.3 Bus2=163.1.2.3 phases=3 Linecode=LC8 Length=0.077987 Units=m
New Line.LINE163 Bus1=158.1.2.3 Bus2=164.1.2.3 phases=3 Linecode=LC1 Length=0.36547 Units=m
New Line.LINE164 Bus1=159.1.2.3 Bus2=165.1.2.3 phases=3 Linecode=LC6 Length=0.21092 Units=m
New Line.LINE165 Bus1=160.1.2.3 Bus2=166.1.2.3 phases=3 Linecode=LC8 Length=2.5063 Units=m
New Line.LINE166 Bus1=161.1.2.3 Bus2=167.1.2.3 phases=3 Linecode=LC6 Length=0.13543 Units=m
New Line.LINE167 Bus1=162.1.2.3 Bus2=168.1.2.3 phases=3 Linecode=LC6 Length=0.039295 Units=m
New Line.LINE168 Bus1=164.1.2.3 Bus2=169.1.2.3 phases=3 Linecode=LC1 Length=8.1758 Units=m
New Line.LINE169 Bus1=164.1.2.3 Bus2=170.1.2.3 phases=3 Linecode=LC1 Length=17.1299 Units=m
New Line.LINE170 Bus1=165.1.2.3 Bus2=171.1.2.3 phases=3 Linecode=LC6 Length=0.21185 Units=m
New Line.LINE171 Bus1=166.1.2.3 Bus2=172.1.2.3 phases=3 Linecode=LC8 Length=1.3727 Units=m
New Line.LINE172 Bus1=167.1.2.3 Bus2=173.1.2.3 phases=3 Linecode=LC6 Length=0.126 Units=m
New Line.LINE173 Bus1=168.1.2.3 Bus2=174.1.2.3 phases=3 Linecode=LC6 Length=0.039395 Units=m
New Line.LINE174 Bus1=171.1.2.3 Bus2=175.1.2.3 phases=3 Linecode=LC6 Length=0.21205 Units=m
New Line.LINE175 Bus1=172.1.2.3 Bus2=176.1.2.3 phases=3 Linecode=LC1 Length=1.4811 Units=m
New Line.LINE176 Bus1=173.1.2.3 Bus2=177.1.2.3 phases=3 Linecode=LC6 Length=0.23915 Units=m
New Line.LINE177 Bus1=174.1.2.3 Bus2=178.1.2.3 phases=3 Linecode=LC6 Length=0.039407 Units=m
New Line.LINE178 Bus1=176.1.2.3 Bus2=179.1.2.3 phases=3 Linecode=LC1 Length=2.2231 Units=m
New Line.LINE179 Bus1=177.1.2.3 Bus2=180.1.2.3 phases=3 Linecode=LC6 Length=0.17576 Units=m
New Line.LINE180 Bus1=178.1.2.3 Bus2=181.1.2.3 phases=3 Linecode=LC6 Length=0.038898 Units=m
New Line.LINE181 Bus1=179.1.2.3 Bus2=182.1.2.3 phases=3 Linecode=LC1 Length=1.473 Units=m
New Line.LINE182 Bus1=180.1.2.3 Bus2=183.1.2.3 phases=3 Linecode=LC6 Length=0.3918 Units=m
New Line.LINE183 Bus1=181.1.2.3 Bus2=184.1.2.3 phases=3 Linecode=LC6 Length=0.038833 Units=m
New Line.LINE184 Bus1=182.1.2.3 Bus2=185.1.2.3 phases=3 Linecode=LC1 Length=4.8265 Units=m
New Line.LINE185 Bus1=184.1.2.3 Bus2=186.1.2.3 phases=3 Linecode=LC6 Length=0.032449 Units=m
New Line.LINE186 Bus1=185.1.2.3 Bus2=187.1.2.3 phases=3 Linecode=LC1 Length=4.4968 Units=m
New Line.LINE187 Bus1=186.1.2.3 Bus2=188.1.2.3 phases=3 Linecode=LC6 Length=0.031892 Units=m
New Line.LINE188 Bus1=187.1.2.3 Bus2=189.1.2.3 phases=3 Linecode=LC1 Length=5.411 Units=m
New Line.LINE189 Bus1=188.1.2.3 Bus2=190.1.2.3 phases=3 Linecode=LC6 Length=0.032649 Units=m
New Line.LINE190 Bus1=189.1.2.3 Bus2=191.1.2.3 phases=3 Linecode=LC1 Length=2.3422 Units=m
New Line.LINE191 Bus1=190.1.2.3 Bus2=192.1.2.3 phases=3 Linecode=LC6 Length=0.033122 Units=m
New Line.LINE192 Bus1=191.1.2.3 Bus2=193.1.2.3 phases=3 Linecode=LC1 Length=9.0468 Units=m
New Line.LINE193 Bus1=192.1.2.3 Bus2=194.1.2.3 phases=3 Linecode=LC6 Length=0.13909 Units=m
New Line.LINE194 Bus1=193.1.2.3 Bus2=195.1.2.3 phases=3 Linecode=LC1 Length=0.01 Units=m
New Line.LINE195 Bus1=194.1.2.3 Bus2=196.1.2.3 phases=3 Linecode=LC6 Length=0.27797 Units=m
New Line.LINE196 Bus1=195.1.2.3 Bus2=197.1.2.3 phases=3 Linecode=LC1 Length=12.6139 Units=m
New Line.LINE197 Bus1=195.1.2.3 Bus2=198.1.2.3 phases=3 Linecode=LC1 Length=9.2139 Units=m
New Line.LINE198 Bus1=195.1.2.3 Bus2=199.1.2.3 phases=3 Linecode=LC1 Length=11.0418 Units=m
New Line.LINE199 Bus1=196.1.2.3 Bus2=200.1.2.3 phases=3 Linecode=LC6 Length=0.44197 Units=m
New Line.LINE200 Bus1=197.1.2.3 Bus2=201.1.2.3 phases=3 Linecode=LC1 Length=8.4372 Units=m
New Line.LINE201 Bus1=198.1.2.3 Bus2=202.1.2.3 phases=3 Linecode=LC1 Length=7.6524 Units=m
New Line.LINE202 Bus1=199.1.2.3 Bus2=203.1.2.3 phases=3 Linecode=LC2 Length=0.25652 Units=m
New Line.LINE203 Bus1=199.1.2.3 Bus2=204.1.2.3 phases=3 Linecode=LC1 Length=1.5683 Units=m
New Line.LINE204 Bus1=201.1.2.3 Bus2=205.1.2.3 phases=3 Linecode=LC1 Length=14.1024 Units=m
New Line.LINE205 Bus1=202.1.2.3 Bus2=206.1.2.3 phases=3 Linecode=LC1 Length=4.2287 Units=m
New Line.LINE206 Bus1=203.1.2.3 Bus2=207.1.2.3 phases=3 Linecode=LC2 Length=0.14412 Units=m
New Line.LINE207 Bus1=204.1.2.3 Bus2=208.1.2.3 phases=3 Linecode=LC1 Length=0.46124 Units=m
New Line.LINE208 Bus1=204.1.2.3 Bus2=209.1.2.3 phases=3 Linecode=LC1 Length=2.4457 Units=m
New Line.LINE209 Bus1=205.1.2.3 Bus2=210.1.2.3 phases=3 Linecode=LC1 Length=3.1975 Units=m
New Line.LINE210 Bus1=206.1.2.3 Bus2=211.1.2.3 phases=3 Linecode=LC1 Length=5.0334 Units=m
New Line.LINE211 Bus1=207.1.2.3 Bus2=212.1.2.3 phases=3 Linecode=LC2 Length=0.14354 Units=m
New Line.LINE212 Bus1=208.1.2.3 Bus2=213.1.2.3 phases=3 Linecode=LC1 Length=0.27365 Units=m
New Line.LINE213 Bus1=209.1.2.3 Bus2=214.1.2.3 phases=3 Linecode=LC1 Length=0.73609 Units=m
New Line.LINE214 Bus1=209.1.2.3 Bus2=215.1.2.3 phases=3 Linecode=LC1 Length=5.9907 Units=m
New Line.LINE215 Bus1=210.1.2.3 Bus2=216.1.2.3 phases=3 Linecode=LC1 Length=2.0554 Units=m
New Line.LINE216 Bus1=211.1.2.3 Bus2=217.1.2.3 phases=3 Linecode=LC1 Length=3.3139 Units=m
New Line.LINE217 Bus1=212.1.2.3 Bus2=218.1.2.3 phases=3 Linecode=LC2 Length=0.14389 Units=m
New Line.LINE218 Bus1=213.1.2.3 Bus2=219.1.2.3 phases=3 Linecode=LC1 Length=0.33738 Units=m
New Line.LINE219 Bus1=215.1.2.3 Bus2=220.1.2.3 phases=3 Linecode=LC1 Length=14.5083 Units=m
New Line.LINE220 Bus1=217.1.2.3 Bus2=221.1.2.3 phases=3 Linecode=LC1 Length=1.7567 Units=m
New Line.LINE221 Bus1=218.1.2.3 Bus2=222.1.2.3 phases=3 Linecode=LC2 Length=0.14425 Units=m
New Line.LINE222 Bus1=219.1.2.3 Bus2=223.1.2.3 phases=3 Linecode=LC1 Length=0.21772 Units=m
New Line.LINE223 Bus1=220.1.2.3 Bus2=224.1.2.3 phases=3 Linecode=LC1 Length=2.7902 Units=m
New Line.LINE224 Bus1=221.1.2.3 Bus2=225.1.2.3 phases=3 Linecode=LC8 Length=1.1713 Units=m
New Line.LINE225 Bus1=222.1.2.3 Bus2=226.1.2.3 phases=3 Linecode=LC2 Length=2.0883 Units=m
New Line.LINE226 Bus1=223.1.2.3 Bus2=227.1.2.3 phases=3 Linecode=LC1 Length=1.1988 Units=m
New Line.LINE227 Bus1=224.1.2.3 Bus2=228.1.2.3 phases=3 Linecode=LC1 Length=2.066 Units=m
New Line.LINE228 Bus1=224.1.2.3 Bus2=229.1.2.3 phases=3 Linecode=LC1 Length=0.74038 Units=m
New Line.LINE229 Bus1=225.1.2.3 Bus2=230.1.2.3 phases=3 Linecode=LC8 Length=1.0234 Units=m
New Line.LINE230 Bus1=229.1.2.3 Bus2=231.1.2.3 phases=3 Linecode=LC1 Length=0.11236 Units=m
New Line.LINE231 Bus1=230.1.2.3 Bus2=232.1.2.3 phases=3 Linecode=LC8 Length=2.857 Units=m
New Line.LINE232 Bus1=231.1.2.3 Bus2=233.1.2.3 phases=3 Linecode=LC1 Length=0.131 Units=m
New Line.LINE233 Bus1=232.1.2.3 Bus2=234.1.2.3 phases=3 Linecode=LC8 Length=2.1176 Units=m
New Line.LINE234 Bus1=233.1.2.3 Bus2=235.1.2.3 phases=3 Linecode=LC1 Length=0.095802 Units=m
New Line.LINE235 Bus1=235.1.2.3 Bus2=236.1.2.3 phases=3 Linecode=LC1 Length=0.065054 Units=m
New Line.LINE236 Bus1=236.1.2.3 Bus2=237.1.2.3 phases=3 Linecode=LC1 Length=1.786 Units=m
! ------------------------------------------------------------------------------------------