! Imported from Lines.txt, with modified linecodes
! ----------------------------------------------------------------------------------------------
New Line.LINE0 Bus1=sourcebus.1.2.3.4 Bus2=1.1.2.3.4 phases=4 Linecode=LC5 Length=1 Units=m
New Line.LINE1 Bus1=1.1.2.3.4 Bus2=2.1.2.3.4 phases=4 Linecode=LC5 Length=0.084957 Units=m
New Line.LINE2 Bus1=2.1.2.3.4 Bus2=3.1.2.3.4 phases=4 Linecode=LC5 Length=0.046229 Units=m
New Line.LINE3 Bus1=3.1.2.3.4 Bus2=4.1.2.3.4 phases=4 Linecode=LC5 Length=0.063514 Units=m
New Line.LINE4 Bus1=4.1.2.3.4 Bus2=5.1.2.3.4 phases=4 Linecode=LC5 Length=0.086405 Units=m
New Line.LINE5 Bus1=5.1.2.3.4 Bus2=6.1.2.3.4 phases=4 Linecode=LC5 Length=0.0636 Units=m
New Line.LINE6 Bus1=6.1.2.3.4 Bus2=7.1.2.3.4 phases=4 Linecode=LC5 Length=0.068593 Units=m
New Line.LINE7 Bus1=7.1.2.3.4 Bus2=8.1.2.3.4 phases=4 Linecode=LC5 Length=0.082999 Units=m
New Line.LINE8 Bus1=8.1.2.3.4 Bus2=9.1.2.3.4 phases=4 Linecode=LC5 Length=0.084344 Units=m
New Line.LINE9 Bus1=9.1.2.3.4 Bus2=10.1.2.3.4 phases=4 Linecode=LC5 Length=0.074001 Units=m
New Line.LINE10 Bus1=10.1.2.3.4 Bus2=11.1.2.3.4 phases=4 Linecode=LC5 Length=0.070236 Units=m
New Line.LINE11 Bus1=11.1.2.3.4 Bus2=12.1.2.3.4 phases=4 Linecode=LC5 Length=0.05547 Units=m
New Line.LINE12 Bus1=12.1.2.3.4 Bus2=13.1.2.3.4 phases=4 Linecode=LC5 Length=0.06868 Units=m
New Line.LINE13 Bus1=13.1.2.3.4 Bus2=14.1.2.3.4 phases=4 Linecode=LC5 Length=3.0514 Units=m
New Line.LINE14 Bus1=14.1.2.3.4 Bus2=15.1.2.3.4 phases=4 Linecode=LC5 Length=1.024 Units=m
New Line.LINE15 Bus1=15.1.2.3.4 Bus2=16.1.2.3.4 phases=4 Linecode=LC5 Length=0.11977 Units=m
New Line.LINE16 Bus1=16.1.2.3.4 Bus2=17.1.2.3.4 phases=4 Linecode=LC5 Length=0.16209 Units=m
New Line.LINE17 Bus1=17.1.2.3.4 Bus2=18.1.2.3.4 phases=4 Linecode=LC5 Length=0.157 Units=m
New Line.LINE18 Bus1=18.1.2.3.4 Bus2=19.1.2.3.4 phases=4 Linecode=LC5 Length=0.16978 Units=m
New Line.LINE19 Bus1=19.1.2.3.4 Bus2=20.1.2.3.4 phases=4 Linecode=LC5 Length=4.2937 Units=m
New Line.LINE20 Bus1=20.1.2.3.4 Bus2=21.1.2.3.4 phases=4 Linecode=LC5 Length=0.2301 Units=m
New Line.LINE21 Bus1=21.1.2.3.4 Bus2=22.1.2.3.4 phases=4 Linecode=LC5 Length=0.11715 Units=m
New Line.LINE22 Bus1=22.1.2.3.4 Bus2=23.1.2.3.4 phases=4 Linecode=LC5 Length=0.11404 Units=m
New Line.LINE23 Bus1=23.1.2.3.4 Bus2=24.1.2.3.4 phases=4 Linecode=LC5 Length=0.10124 Units=m
New Line.LINE24 Bus1=24.1.2.3.4 Bus2=25.1.2.3.4 phases=4 Linecode=LC5 Length=0.14188 Units=m
New Line.LINE25 Bus1=25.1.2.3.4 Bus2=26.1.2.3.4 phases=4 Linecode=LC5 Length=0.099731 Units=m
New Line.LINE26 Bus1=26.1.2.3.4 Bus2=27.1.2.3.4 phases=4 Linecode=LC5 Length=0.31537 Units=m
New Line.LINE27 Bus1=27.1.2.3.4 Bus2=28.1.2.3.4 phases=4 Linecode=LC5 Length=4.6104 Units=m
New Line.LINE28 Bus1=28.1.2.3.4 Bus2=29.1.2.3.4 phases=4 Linecode=LC5 Length=1.1816 Units=m
New Line.LINE29 Bus1=29.1.2.3.4 Bus2=30.1.2.3.4 phases=4 Linecode=LC5 Length=1.987 Units=m
New Line.LINE30 Bus1=30.1.2.3.4 Bus2=31.1.2.3.4 phases=4 Linecode=LC5 Length=1.9863 Units=m
New Line.LINE31 Bus1=31.1.2.3.4 Bus2=32.1.2.3.4 phases=4 Linecode=LC5 Length=3.0165 Units=m
New Line.LINE32 Bus1=32.1.2.3.4 Bus2=33.1.2.3.4 phases=4 Linecode=LC5 Length=0.29167 Units=m
New Line.LINE33 Bus1=33.1.2.3.4 Bus2=34.1.2.3.4 phases=4 Linecode=LC5 Length=0.4612 Units=m
New Line.LINE34 Bus1=34.1.2.3.4 Bus2=35.1.2.3.4 phases=4 Linecode=LC5 Length=0.44522 Units=m
New Line.LINE35 Bus1=35.1.2.3.4 Bus2=36.1.2.3.4 phases=4 Linecode=LC5 Length=0.441 Units=m
New Line.LINE36 Bus1=36.1.2.3.4 Bus2=37.1.2.3.4 phases=4 Linecode=LC5 Length=0.37355 Units=m
New Line.LINE37 Bus1=37.1.2.3.4 Bus2=38.1.2.3.4 phases=4 Linecode=LC5 Length=0.33354 Units=m
New Line.LINE38 Bus1=38.1.2.3.4 Bus2=39.1.2.3.4 phases=4 Linecode=LC5 Length=9.8335 Units=m
New Line.LINE39 Bus1=39.1.2.3.4 Bus2=40.1.2.3.4 phases=4 Linecode=LC5 Length=1.6607 Units=m
New Line.LINE40 Bus1=40.1.2.3.4 Bus2=41.1.2.3.4 phases=4 Linecode=LC5 Length=0.17612 Units=m
New Line.LINE41 Bus1=41.1.2.3.4 Bus2=42.1.2.3.4 phases=4 Linecode=LC5 Length=0.25745 Units=m
New Line.LINE42 Bus1=42.1.2.3.4 Bus2=43.1.2.3.4 phases=4 Linecode=LC5 Length=0.22051 Units=m
New Line.LINE43 Bus1=43.1.2.3.4 Bus2=44.1.2.3.4 phases=4 Linecode=LC5 Length=0.21452 Units=m
New Line.LINE44 Bus1=44.1.2.3.4 Bus2=45.1.2.3.4 phases=4 Linecode=LC5 Length=6.878 Units=m
New Line.LINE45 Bus1=45.1.2.3.4 Bus2=46.1.2.3.4 phases=4 Linecode=LC5 Length=0.87046 Units=m
New Line.LINE46 Bus1=46.1.2.3.4 Bus2=47.1.2.3.4 phases=4 Linecode=LC5 Length=0.39717 Units=m
New Line.LINE47 Bus1=47.1.2.3.4 Bus2=48.1.2.3.4 phases=4 Linecode=LC5 Length=0.45283 Units=m
New Line.LINE48 Bus1=48.1.2.3.4 Bus2=49.1.2.3.4 phases=4 Linecode=LC5 Length=3.7524 Units=m
New Line.LINE49 Bus1=49.1.2.3.4 Bus2=50.1.2.3.4 phases=4 Linecode=LC5 Length=16.8392 Units=m
New Line.LINE50 Bus1=50.1.2.3.4 Bus2=51.1.2.3.4 phases=4 Linecode=LC5 Length=17.4343 Units=m
New Line.LINE51 Bus1=51.1.2.3.4 Bus2=52.1.2.3.4 phases=4 Linecode=LC5 Length=2.4406 Units=m
New Line.LINE52 Bus1=51.1.2.3.4 Bus2=53.1.2.3.4 phases=4 Linecode=LC6 Length=0.5364 Units=m
New Line.LINE53 Bus1=52.1.2.3.4 Bus2=54.1.2.3.4 phases=4 Linecode=LC5 Length=0.72837 Units=m
New Line.LINE54 Bus1=53.1.2.3.4 Bus2=55.1.2.3.4 phases=4 Linecode=LC6 Length=0.16313 Units=m
New Line.LINE55 Bus1=54.1.2.3.4 Bus2=56.1.2.3.4 phases=4 Linecode=LC5 Length=0.25155 Units=m
New Line.LINE56 Bus1=55.1.2.3.4 Bus2=57.1.2.3.4 phases=4 Linecode=LC6 Length=0.20658 Units=m
New Line.LINE57 Bus1=56.1.2.3.4 Bus2=58.1.2.3.4 phases=4 Linecode=LC5 Length=0.24974 Units=m
New Line.LINE58 Bus1=57.1.2.3.4 Bus2=59.1.2.3.4 phases=4 Linecode=LC6 Length=0.25796 Units=m
New Line.LINE59 Bus1=58.1.2.3.4 Bus2=60.1.2.3.4 phases=4 Linecode=LC5 Length=1.4171 Units=m
New Line.LINE60 Bus1=59.1.2.3.4 Bus2=61.1.2.3.4 phases=4 Linecode=LC6 Length=0.27593 Units=m
New Line.LINE61 Bus1=60.1.2.3.4 Bus2=62.1.2.3.4 phases=4 Linecode=LC5 Length=0.392 Units=m
New Line.LINE62 Bus1=61.1.2.3.4 Bus2=63.1.2.3.4 phases=4 Linecode=LC6 Length=0.23024 Units=m
New Line.LINE63 Bus1=62.1.2.3.4 Bus2=64.1.2.3.4 phases=4 Linecode=LC5 Length=0.28134 Units=m
New Line.LINE64 Bus1=63.1.2.3.4 Bus2=65.1.2.3.4 phases=4 Linecode=LC6 Length=0.39187 Units=m
New Line.LINE65 Bus1=64.1.2.3.4 Bus2=66.1.2.3.4 phases=4 Linecode=LC5 Length=3.7804 Units=m
New Line.LINE66 Bus1=65.1.2.3.4 Bus2=67.1.2.3.4 phases=4 Linecode=LC6 Length=0.25599 Units=m
New Line.LINE67 Bus1=66.1.2.3.4 Bus2=68.1.2.3.4 phases=4 Linecode=LC5 Length=0.15439 Units=m
New Line.LINE68 Bus1=67.1.2.3.4 Bus2=69.1.2.3.4 phases=4 Linecode=LC6 Length=0.17945 Units=m
New Line.LINE69 Bus1=68.1.2.3.4 Bus2=70.1.2.3.4 phases=4 Linecode=LC5 Length=0.19694 Units=m
New Line.LINE70 Bus1=69.1.2.3.4 Bus2=71.1.2.3.4 phases=4 Linecode=LC6 Length=0.21276 Units=m
New Line.LINE71 Bus1=70.1.2.3.4 Bus2=72.1.2.3.4 phases=4 Linecode=LC5 Length=0.14306 Units=m
New Line.LINE72 Bus1=71.1.2.3.4 Bus2=73.1.2.3.4 phases=4 Linecode=LC6 Length=0.16706 Units=m
New Line.LINE73 Bus1=72.1.2.3.4 Bus2=74.1.2.3.4 phases=4 Linecode=LC5 Length=0.26066 Units=m
New Line.LINE74 Bus1=73.1.2.3.4 Bus2=75.1.2.3.4 phases=4 Linecode=LC6 Length=0.19109 Units=m
New Line.LINE75 Bus1=74.1.2.3.4 Bus2=76.1.2.3.4 phases=4 Linecode=LC5 Length=5.3702 Units=m
New Line.LINE76 Bus1=76.1.2.3.4 Bus2=77.1.2.3.4 phases=4 Linecode=LC5 Length=10.4688 Units=m
New Line.LINE77 Bus1=77.1.2.3.4 Bus2=78.1.2.3.4 phases=4 Linecode=LC5 Length=7.1687 Units=m
New Line.LINE78 Bus1=77.1.2.3.4 Bus2=79.1.2.3.4 phases=4 Linecode=LC5 Length=0.79085 Units=m
New Line.LINE79 Bus1=78.1.2.3.4 Bus2=80.1.2.3.4 phases=4 Linecode=LC5 Length=1.2952 Units=m
New Line.LINE80 Bus1=79.1.2.3.4 Bus2=81.1.2.3.4 phases=4 Linecode=LC5 Length=0.32091 Units=m
New Line.LINE81 Bus1=80.1.2.3.4 Bus2=82.1.2.3.4 phases=4 Linecode=LC6 Length=0.88678 Units=m
New Line.LINE82 Bus1=80.1.2.3.4 Bus2=83.1.2.3.4 phases=4 Linecode=LC5 Length=0.8032 Units=m
New Line.LINE83 Bus1=81.1.2.3.4 Bus2=84.1.2.3.4 phases=4 Linecode=LC5 Length=0.35582 Units=m
New Line.LINE84 Bus1=82.1.2.3.4 Bus2=85.1.2.3.4 phases=4 Linecode=LC6 Length=0.319 Units=m
New Line.LINE85 Bus1=83.1.2.3.4 Bus2=86.1.2.3.4 phases=4 Linecode=LC6 Length=0.28394 Units=m
New Line.LINE86 Bus1=83.1.2.3.4 Bus2=87.1.2.3.4 phases=4 Linecode=LC5 Length=3.7049 Units=m
New Line.LINE87 Bus1=84.1.2.3.4 Bus2=88.1.2.3.4 phases=4 Linecode=LC5 Length=0.28516 Units=m
New Line.LINE88 Bus1=85.1.2.3.4 Bus2=89.1.2.3.4 phases=4 Linecode=LC6 Length=0.35483 Units=m
New Line.LINE89 Bus1=86.1.2.3.4 Bus2=90.1.2.3.4 phases=4 Linecode=LC6 Length=0.106 Units=m
New Line.LINE90 Bus1=87.1.2.3.4 Bus2=91.1.2.3.4 phases=4 Linecode=LC8 Length=1.8707 Units=m
New Line.LINE91 Bus1=88.1.2.3.4 Bus2=92.1.2.3.4 phases=4 Linecode=LC5 Length=0.30387 Units=m
New Line.LINE92 Bus1=89.1.2.3.4 Bus2=93.1.2.3.4 phases=4 Linecode=LC6 Length=2.3925 Units=m
New Line.LINE93 Bus1=90.1.2.3.4 Bus2=94.1.2.3.4 phases=4 Linecode=LC6 Length=0.126 Units=m
New Line.LINE94 Bus1=91.1.2.3.4 Bus2=95.1.2.3.4 phases=4 Linecode=LC5 Length=0.83369 Units=m
New Line.LINE95 Bus1=92.1.2.3.4 Bus2=96.1.2.3.4 phases=4 Linecode=LC5 Length=0.61945 Units=m
New Line.LINE96 Bus1=93.1.2.3.4 Bus2=97.1.2.3.4 phases=4 Linecode=LC6 Length=0.57213 Units=m
New Line.LINE97 Bus1=94.1.2.3.4 Bus2=98.1.2.3.4 phases=4 Linecode=LC6 Length=0.20906 Units=m
New Line.LINE98 Bus1=95.1.2.3.4 Bus2=99.1.2.3.4 phases=4 Linecode=LC6 Length=0.41509 Units=m
New Line.LINE99 Bus1=95.1.2.3.4 Bus2=100.1.2.3.4 phases=4 Linecode=LC5 Length=0.17031 Units=m
New Line.LINE100 Bus1=96.1.2.3.4 Bus2=101.1.2.3.4 phases=4 Linecode=LC5 Length=1.1425 Units=m
New Line.LINE101 Bus1=97.1.2.3.4 Bus2=102.1.2.3.4 phases=4 Linecode=LC6 Length=0.566 Units=m
New Line.LINE102 Bus1=98.1.2.3.4 Bus2=103.1.2.3.4 phases=4 Linecode=LC6 Length=0.85786 Units=m
New Line.LINE103 Bus1=99.1.2.3.4 Bus2=104.1.2.3.4 phases=4 Linecode=LC6 Length=0.17076 Units=m
New Line.LINE104 Bus1=100.1.2.3.4 Bus2=105.1.2.3.4 phases=4 Linecode=LC5 Length=1.6721 Units=m
New Line.LINE105 Bus1=101.1.2.3.4 Bus2=106.1.2.3.4 phases=4 Linecode=LC6 Length=0.18653 Units=m
New Line.LINE106 Bus1=101.1.2.3.4 Bus2=107.1.2.3.4 phases=4 Linecode=LC5 Length=0.84389 Units=m
New Line.LINE107 Bus1=102.1.2.3.4 Bus2=108.1.2.3.4 phases=4 Linecode=LC6 Length=0.50692 Units=m
New Line.LINE108 Bus1=103.1.2.3.4 Bus2=109.1.2.3.4 phases=4 Linecode=LC6 Length=2.5125 Units=m
New Line.LINE109 Bus1=104.1.2.3.4 Bus2=110.1.2.3.4 phases=4 Linecode=LC6 Length=0.21061 Units=m
New Line.LINE110 Bus1=105.1.2.3.4 Bus2=111.1.2.3.4 phases=4 Linecode=LC5 Length=0.91639 Units=m
New Line.LINE111 Bus1=105.1.2.3.4 Bus2=112.1.2.3.4 phases=4 Linecode=LC6 Length=0.42264 Units=m
New Line.LINE112 Bus1=106.1.2.3.4 Bus2=113.1.2.3.4 phases=4 Linecode=LC6 Length=0.166 Units=m
New Line.LINE113 Bus1=107.1.2.3.4 Bus2=114.1.2.3.4 phases=4 Linecode=LC6 Length=1.0671 Units=m
New Line.LINE114 Bus1=107.1.2.3.4 Bus2=115.1.2.3.4 phases=4 Linecode=LC5 Length=5.1816 Units=m
New Line.LINE115 Bus1=108.1.2.3.4 Bus2=116.1.2.3.4 phases=4 Linecode=LC6 Length=0.52529 Units=m
New Line.LINE116 Bus1=109.1.2.3.4 Bus2=117.1.2.3.4 phases=4 Linecode=LC6 Length=7.6501 Units=m
New Line.LINE117 Bus1=110.1.2.3.4 Bus2=118.1.2.3.4 phases=4 Linecode=LC6 Length=0.14688 Units=m
New Line.LINE118 Bus1=111.1.2.3.4 Bus2=119.1.2.3.4 phases=4 Linecode=LC5 Length=1.04 Units=m
New Line.LINE119 Bus1=112.1.2.3.4 Bus2=120.1.2.3.4 phases=4 Linecode=LC6 Length=0.15754 Units=m
New Line.LINE120 Bus1=113.1.2.3.4 Bus2=121.1.2.3.4 phases=4 Linecode=LC6 Length=0.11937 Units=m
New Line.LINE121 Bus1=114.1.2.3.4 Bus2=122.1.2.3.4 phases=4 Linecode=LC6 Length=0.31254 Units=m
New Line.LINE122 Bus1=115.1.2.3.4 Bus2=123.1.2.3.4 phases=4 Linecode=LC5 Length=0.49429 Units=m
New Line.LINE123 Bus1=115.1.2.3.4 Bus2=124.1.2.3.4 phases=4 Linecode=LC5 Length=1.3304 Units=m
New Line.LINE124 Bus1=116.1.2.3.4 Bus2=125.1.2.3.4 phases=4 Linecode=LC6 Length=9.8047 Units=m
New Line.LINE125 Bus1=117.1.2.3.4 Bus2=126.1.2.3.4 phases=4 Linecode=LC6 Length=4.2197 Units=m
New Line.LINE126 Bus1=118.1.2.3.4 Bus2=127.1.2.3.4 phases=4 Linecode=LC6 Length=0.26606 Units=m
New Line.LINE127 Bus1=119.1.2.3.4 Bus2=128.1.2.3.4 phases=4 Linecode=LC5 Length=0.26941 Units=m
New Line.LINE128 Bus1=120.1.2.3.4 Bus2=129.1.2.3.4 phases=4 Linecode=LC6 Length=0.38798 Units=m
New Line.LINE129 Bus1=121.1.2.3.4 Bus2=130.1.2.3.4 phases=4 Linecode=LC6 Length=0.153 Units=m
New Line.LINE130 Bus1=122.1.2.3.4 Bus2=131.1.2.3.4 phases=4 Linecode=LC6 Length=0.2318 Units=m
New Line.LINE131 Bus1=123.1.2.3.4 Bus2=132.1.2.3.4 phases=4 Linecode=LC5 Length=0.15556 Units=m
New Line.LINE132 Bus1=124.1.2.3.4 Bus2=133.1.2.3.4 phases=4 Linecode=LC5 Length=4.3821 Units=m
New Line.LINE133 Bus1=124.1.2.3.4 Bus2=134.1.2.3.4 phases=4 Linecode=LC2 Length=0.96218 Units=m
New Line.LINE134 Bus1=125.1.2.3.4 Bus2=135.1.2.3.4 phases=4 Linecode=LC6 Length=5.5127 Units=m
New Line.LINE135 Bus1=127.1.2.3.4 Bus2=136.1.2.3.4 phases=4 Linecode=LC6 Length=0.22049 Units=m
New Line.LINE136 Bus1=128.1.2.3.4 Bus2=137.1.2.3.4 phases=4 Linecode=LC5 Length=0.2202 Units=m
New Line.LINE137 Bus1=129.1.2.3.4 Bus2=138.1.2.3.4 phases=4 Linecode=LC6 Length=0.15642 Units=m
New Line.LINE138 Bus1=130.1.2.3.4 Bus2=139.1.2.3.4 phases=4 Linecode=LC6 Length=0.14001 Units=m
New Line.LINE139 Bus1=131.1.2.3.4 Bus2=140.1.2.3.4 phases=4 Linecode=LC6 Length=0.29533 Units=m
New Line.LINE140 Bus1=132.1.2.3.4 Bus2=141.1.2.3.4 phases=4 Linecode=LC5 Length=0.49328 Units=m
New Line.LINE141 Bus1=133.1.2.3.4 Bus2=142.1.2.3.4 phases=4 Linecode=LC6 Length=5.7347 Units=m
New Line.LINE142 Bus1=134.1.2.3.4 Bus2=143.1.2.3.4 phases=4 Linecode=LC2 Length=0.12594 Units=m
New Line.LINE143 Bus1=136.1.2.3.4 Bus2=144.1.2.3.4 phases=4 Linecode=LC6 Length=0.51948 Units=m
New Line.LINE144 Bus1=137.1.2.3.4 Bus2=145.1.2.3.4 phases=4 Linecode=LC5 Length=0.39977 Units=m
New Line.LINE145 Bus1=138.1.2.3.4 Bus2=146.1.2.3.4 phases=4 Linecode=LC6 Length=0.68082 Units=m
New Line.LINE146 Bus1=139.1.2.3.4 Bus2=147.1.2.3.4 phases=4 Linecode=LC6 Length=0.15882 Units=m
New Line.LINE147 Bus1=140.1.2.3.4 Bus2=148.1.2.3.4 phases=4 Linecode=LC6 Length=0.3488 Units=m
New Line.LINE148 Bus1=142.1.2.3.4 Bus2=149.1.2.3.4 phases=4 Linecode=LC6 Length=0.49355 Units=m
New Line.LINE149 Bus1=143.1.2.3.4 Bus2=150.1.2.3.4 phases=4 Linecode=LC2 Length=0.12292 Units=m
New Line.LINE150 Bus1=144.1.2.3.4 Bus2=151.1.2.3.4 phases=4 Linecode=LC6 Length=9.7709 Units=m
New Line.LINE151 Bus1=145.1.2.3.4 Bus2=152.1.2.3.4 phases=4 Linecode=LC5 Length=3.7603 Units=m
New Line.LINE152 Bus1=146.1.2.3.4 Bus2=153.1.2.3.4 phases=4 Linecode=LC6 Length=0.060927 Units=m
New Line.LINE153 Bus1=147.1.2.3.4 Bus2=154.1.2.3.4 phases=4 Linecode=LC6 Length=0.18685 Units=m
New Line.LINE154 Bus1=148.1.2.3.4 Bus2=155.1.2.3.4 phases=4 Linecode=LC6 Length=1.3254 Units=m
New Line.LINE155 Bus1=149.1.2.3.4 Bus2=156.1.2.3.4 phases=4 Linecode=LC6 Length=0.29607 Units=m
New Line.LINE156 Bus1=150.1.2.3.4 Bus2=157.1.2.3.4 phases=4 Linecode=LC2 Length=0.079404 Units=m
New Line.LINE157 Bus1=151.1.2.3.4 Bus2=158.1.2.3.4 phases=4 Linecode=LC6 Length=4.5064 Units=m
New Line.LINE158 Bus1=152.1.2.3.4 Bus2=159.1.2.3.4 phases=4 Linecode=LC3 Length=0.44662 Units=m
New Line.LINE159 Bus1=152.1.2.3.4 Bus2=160.1.2.3.4 phases=4 Linecode=LC5 Length=8.158 Units=m
New Line.LINE160 Bus1=153.1.2.3.4 Bus2=161.1.2.3.4 phases=4 Linecode=LC6 Length=0.20632 Units=m
New Line.LINE161 Bus1=154.1.2.3.4 Bus2=162.1.2.3.4 phases=4 Linecode=LC6 Length=0.12947 Units=m
New Line.LINE162 Bus1=155.1.2.3.4 Bus2=163.1.2.3.4 phases=4 Linecode=LC6 Length=4.4382 Units=m
New Line.LINE163 Bus1=156.1.2.3.4 Bus2=164.1.2.3.4 phases=4 Linecode=LC6 Length=0.257 Units=m
New Line.LINE164 Bus1=157.1.2.3.4 Bus2=165.1.2.3.4 phases=4 Linecode=LC2 Length=0.28178 Units=m
New Line.LINE165 Bus1=159.1.2.3.4 Bus2=166.1.2.3.4 phases=4 Linecode=LC3 Length=0.11455 Units=m
New Line.LINE166 Bus1=160.1.2.3.4 Bus2=167.1.2.3.4 phases=4 Linecode=LC5 Length=15.9995 Units=m
New Line.LINE167 Bus1=161.1.2.3.4 Bus2=168.1.2.3.4 phases=4 Linecode=LC6 Length=0.20169 Units=m
New Line.LINE168 Bus1=162.1.2.3.4 Bus2=169.1.2.3.4 phases=4 Linecode=LC6 Length=0.085094 Units=m
New Line.LINE169 Bus1=164.1.2.3.4 Bus2=170.1.2.3.4 phases=4 Linecode=LC6 Length=0.65056 Units=m
New Line.LINE170 Bus1=165.1.2.3.4 Bus2=171.1.2.3.4 phases=4 Linecode=LC2 Length=1.6982 Units=m
New Line.LINE171 Bus1=166.1.2.3.4 Bus2=172.1.2.3.4 phases=4 Linecode=LC3 Length=0.21084 Units=m
New Line.LINE172 Bus1=167.1.2.3.4 Bus2=173.1.2.3.4 phases=4 Linecode=LC5 Length=0.38622 Units=m
New Line.LINE173 Bus1=168.1.2.3.4 Bus2=174.1.2.3.4 phases=4 Linecode=LC6 Length=0.054561 Units=m
New Line.LINE174 Bus1=169.1.2.3.4 Bus2=175.1.2.3.4 phases=4 Linecode=LC6 Length=0.13147 Units=m
New Line.LINE175 Bus1=170.1.2.3.4 Bus2=176.1.2.3.4 phases=4 Linecode=LC6 Length=0.43239 Units=m
New Line.LINE176 Bus1=170.1.2.3.4 Bus2=177.1.2.3.4 phases=4 Linecode=LC6 Length=1.0095 Units=m
New Line.LINE177 Bus1=171.1.2.3.4 Bus2=178.1.2.3.4 phases=4 Linecode=LC2 Length=4.475 Units=m
New Line.LINE178 Bus1=172.1.2.3.4 Bus2=179.1.2.3.4 phases=4 Linecode=LC3 Length=0.26072 Units=m
New Line.LINE179 Bus1=173.1.2.3.4 Bus2=180.1.2.3.4 phases=4 Linecode=LC5 Length=7.6351 Units=m
New Line.LINE180 Bus1=174.1.2.3.4 Bus2=181.1.2.3.4 phases=4 Linecode=LC6 Length=0.069643 Units=m
New Line.LINE181 Bus1=175.1.2.3.4 Bus2=182.1.2.3.4 phases=4 Linecode=LC6 Length=0.52172 Units=m
New Line.LINE182 Bus1=176.1.2.3.4 Bus2=183.1.2.3.4 phases=4 Linecode=LC6 Length=0.12304 Units=m
New Line.LINE183 Bus1=177.1.2.3.4 Bus2=184.1.2.3.4 phases=4 Linecode=LC6 Length=5.8806 Units=m
New Line.LINE184 Bus1=179.1.2.3.4 Bus2=185.1.2.3.4 phases=4 Linecode=LC3 Length=0.18462 Units=m
New Line.LINE185 Bus1=180.1.2.3.4 Bus2=186.1.2.3.4 phases=4 Linecode=LC5 Length=0.9671 Units=m
New Line.LINE186 Bus1=181.1.2.3.4 Bus2=187.1.2.3.4 phases=4 Linecode=LC6 Length=0.097184 Units=m
New Line.LINE187 Bus1=182.1.2.3.4 Bus2=188.1.2.3.4 phases=4 Linecode=LC6 Length=0.13909 Units=m
New Line.LINE188 Bus1=183.1.2.3.4 Bus2=189.1.2.3.4 phases=4 Linecode=LC6 Length=0.12455 Units=m
New Line.LINE189 Bus1=185.1.2.3.4 Bus2=190.1.2.3.4 phases=4 Linecode=LC3 Length=0.14892 Units=m
New Line.LINE190 Bus1=186.1.2.3.4 Bus2=191.1.2.3.4 phases=4 Linecode=LC5 Length=0.21602 Units=m
New Line.LINE191 Bus1=186.1.2.3.4 Bus2=192.1.2.3.4 phases=4 Linecode=LC5 Length=1.5777 Units=m
New Line.LINE192 Bus1=187.1.2.3.4 Bus2=193.1.2.3.4 phases=4 Linecode=LC6 Length=0.19509 Units=m
New Line.LINE193 Bus1=188.1.2.3.4 Bus2=194.1.2.3.4 phases=4 Linecode=LC6 Length=0.45015 Units=m
New Line.LINE194 Bus1=189.1.2.3.4 Bus2=195.1.2.3.4 phases=4 Linecode=LC6 Length=0.093408 Units=m
New Line.LINE195 Bus1=190.1.2.3.4 Bus2=196.1.2.3.4 phases=4 Linecode=LC3 Length=0.12277 Units=m
New Line.LINE196 Bus1=191.1.2.3.4 Bus2=197.1.2.3.4 phases=4 Linecode=LC5 Length=0.12428 Units=m
New Line.LINE197 Bus1=192.1.2.3.4 Bus2=198.1.2.3.4 phases=4 Linecode=LC5 Length=0.89253 Units=m
New Line.LINE198 Bus1=192.1.2.3.4 Bus2=199.1.2.3.4 phases=4 Linecode=LC4 Length=0.70645 Units=m
New Line.LINE199 Bus1=193.1.2.3.4 Bus2=200.1.2.3.4 phases=4 Linecode=LC6 Length=0.1305 Units=m
New Line.LINE200 Bus1=194.1.2.3.4 Bus2=201.1.2.3.4 phases=4 Linecode=LC6 Length=0.13662 Units=m
New Line.LINE201 Bus1=195.1.2.3.4 Bus2=202.1.2.3.4 phases=4 Linecode=LC6 Length=0.090001 Units=m
New Line.LINE202 Bus1=196.1.2.3.4 Bus2=203.1.2.3.4 phases=4 Linecode=LC3 Length=0.16533 Units=m
New Line.LINE203 Bus1=197.1.2.3.4 Bus2=204.1.2.3.4 phases=4 Linecode=LC5 Length=0.1194 Units=m
New Line.LINE204 Bus1=198.1.2.3.4 Bus2=205.1.2.3.4 phases=4 Linecode=LC5 Length=4.9128 Units=m
New Line.LINE205 Bus1=199.1.2.3.4 Bus2=206.1.2.3.4 phases=4 Linecode=LC4 Length=0.21852 Units=m
New Line.LINE206 Bus1=200.1.2.3.4 Bus2=207.1.2.3.4 phases=4 Linecode=LC6 Length=0.16259 Units=m
New Line.LINE207 Bus1=201.1.2.3.4 Bus2=208.1.2.3.4 phases=4 Linecode=LC6 Length=0.096316 Units=m
New Line.LINE208 Bus1=202.1.2.3.4 Bus2=209.1.2.3.4 phases=4 Linecode=LC6 Length=0.073681 Units=m
New Line.LINE209 Bus1=203.1.2.3.4 Bus2=210.1.2.3.4 phases=4 Linecode=LC3 Length=0.19985 Units=m
New Line.LINE210 Bus1=204.1.2.3.4 Bus2=211.1.2.3.4 phases=4 Linecode=LC5 Length=0.51743 Units=m
New Line.LINE211 Bus1=205.1.2.3.4 Bus2=212.1.2.3.4 phases=4 Linecode=LC5 Length=0.85437 Units=m
New Line.LINE212 Bus1=206.1.2.3.4 Bus2=213.1.2.3.4 phases=4 Linecode=LC4 Length=0.13548 Units=m
New Line.LINE213 Bus1=207.1.2.3.4 Bus2=214.1.2.3.4 phases=4 Linecode=LC6 Length=0.11604 Units=m
New Line.LINE214 Bus1=208.1.2.3.4 Bus2=215.1.2.3.4 phases=4 Linecode=LC6 Length=0.065147 Units=m
New Line.LINE215 Bus1=209.1.2.3.4 Bus2=216.1.2.3.4 phases=4 Linecode=LC6 Length=0.14312 Units=m
New Line.LINE216 Bus1=210.1.2.3.4 Bus2=217.1.2.3.4 phases=4 Linecode=LC3 Length=0.30866 Units=m
New Line.LINE217 Bus1=211.1.2.3.4 Bus2=218.1.2.3.4 phases=4 Linecode=LC5 Length=0.70214 Units=m
New Line.LINE218 Bus1=212.1.2.3.4 Bus2=219.1.2.3.4 phases=4 Linecode=LC5 Length=9.5083 Units=m
New Line.LINE219 Bus1=213.1.2.3.4 Bus2=220.1.2.3.4 phases=4 Linecode=LC4 Length=0.15464 Units=m
New Line.LINE220 Bus1=214.1.2.3.4 Bus2=221.1.2.3.4 phases=4 Linecode=LC6 Length=0.093107 Units=m
New Line.LINE221 Bus1=215.1.2.3.4 Bus2=222.1.2.3.4 phases=4 Linecode=LC6 Length=0.052801 Units=m
New Line.LINE222 Bus1=216.1.2.3.4 Bus2=223.1.2.3.4 phases=4 Linecode=LC6 Length=4.4428 Units=m
New Line.LINE223 Bus1=217.1.2.3.4 Bus2=224.1.2.3.4 phases=4 Linecode=LC3 Length=0.35446 Units=m
New Line.LINE224 Bus1=218.1.2.3.4 Bus2=225.1.2.3.4 phases=4 Linecode=LC5 Length=0.46358 Units=m
New Line.LINE225 Bus1=219.1.2.3.4 Bus2=226.1.2.3.4 phases=4 Linecode=LC8 Length=0.65834 Units=m
New Line.LINE226 Bus1=220.1.2.3.4 Bus2=227.1.2.3.4 phases=4 Linecode=LC4 Length=0.14241 Units=m
New Line.LINE227 Bus1=221.1.2.3.4 Bus2=228.1.2.3.4 phases=4 Linecode=LC6 Length=0.10324 Units=m
New Line.LINE228 Bus1=222.1.2.3.4 Bus2=229.1.2.3.4 phases=4 Linecode=LC6 Length=0.052202 Units=m
New Line.LINE229 Bus1=223.1.2.3.4 Bus2=230.1.2.3.4 phases=4 Linecode=LC6 Length=0.19554 Units=m
New Line.LINE230 Bus1=224.1.2.3.4 Bus2=231.1.2.3.4 phases=4 Linecode=LC3 Length=2.6988 Units=m
New Line.LINE231 Bus1=225.1.2.3.4 Bus2=232.1.2.3.4 phases=4 Linecode=LC5 Length=0.10824 Units=m
New Line.LINE232 Bus1=226.1.2.3.4 Bus2=233.1.2.3.4 phases=4 Linecode=LC8 Length=0.099826 Units=m
New Line.LINE233 Bus1=227.1.2.3.4 Bus2=234.1.2.3.4 phases=4 Linecode=LC4 Length=0.13461 Units=m
New Line.LINE234 Bus1=228.1.2.3.4 Bus2=235.1.2.3.4 phases=4 Linecode=LC6 Length=0.087235 Units=m
New Line.LINE235 Bus1=229.1.2.3.4 Bus2=236.1.2.3.4 phases=4 Linecode=LC6 Length=0.062001 Units=m
New Line.LINE236 Bus1=230.1.2.3.4 Bus2=237.1.2.3.4 phases=4 Linecode=LC6 Length=0.18071 Units=m
New Line.LINE237 Bus1=231.1.2.3.4 Bus2=238.1.2.3.4 phases=4 Linecode=LC3 Length=4.1675 Units=m
New Line.LINE238 Bus1=232.1.2.3.4 Bus2=239.1.2.3.4 phases=4 Linecode=LC5 Length=0.1122 Units=m
New Line.LINE239 Bus1=233.1.2.3.4 Bus2=240.1.2.3.4 phases=4 Linecode=LC8 Length=0.13706 Units=m
New Line.LINE240 Bus1=234.1.2.3.4 Bus2=241.1.2.3.4 phases=4 Linecode=LC4 Length=0.14903 Units=m
New Line.LINE241 Bus1=235.1.2.3.4 Bus2=242.1.2.3.4 phases=4 Linecode=LC6 Length=0.055803 Units=m
New Line.LINE242 Bus1=236.1.2.3.4 Bus2=243.1.2.3.4 phases=4 Linecode=LC6 Length=0.36785 Units=m
New Line.LINE243 Bus1=237.1.2.3.4 Bus2=244.1.2.3.4 phases=4 Linecode=LC6 Length=0.27191 Units=m
New Line.LINE244 Bus1=238.1.2.3.4 Bus2=245.1.2.3.4 phases=4 Linecode=LC3 Length=1.6218 Units=m
New Line.LINE245 Bus1=238.1.2.3.4 Bus2=246.1.2.3.4 phases=4 Linecode=LC6 Length=1.1851 Units=m
New Line.LINE246 Bus1=239.1.2.3.4 Bus2=247.1.2.3.4 phases=4 Linecode=LC5 Length=0.38118 Units=m
New Line.LINE247 Bus1=240.1.2.3.4 Bus2=248.1.2.3.4 phases=4 Linecode=LC8 Length=0.26971 Units=m
New Line.LINE248 Bus1=241.1.2.3.4 Bus2=249.1.2.3.4 phases=4 Linecode=LC4 Length=0.41675 Units=m
New Line.LINE249 Bus1=242.1.2.3.4 Bus2=250.1.2.3.4 phases=4 Linecode=LC6 Length=0.15555 Units=m
New Line.LINE250 Bus1=244.1.2.3.4 Bus2=251.1.2.3.4 phases=4 Linecode=LC6 Length=0.063247 Units=m
New Line.LINE251 Bus1=245.1.2.3.4 Bus2=252.1.2.3.4 phases=4 Linecode=LC3 Length=4.4248 Units=m
New Line.LINE252 Bus1=246.1.2.3.4 Bus2=253.1.2.3.4 phases=4 Linecode=LC6 Length=0.362 Units=m
New Line.LINE253 Bus1=247.1.2.3.4 Bus2=254.1.2.3.4 phases=4 Linecode=LC5 Length=0.15519 Units=m
New Line.LINE254 Bus1=248.1.2.3.4 Bus2=255.1.2.3.4 phases=4 Linecode=LC8 Length=0.13341 Units=m
New Line.LINE255 Bus1=249.1.2.3.4 Bus2=256.1.2.3.4 phases=4 Linecode=LC4 Length=4.088 Units=m
New Line.LINE256 Bus1=250.1.2.3.4 Bus2=257.1.2.3.4 phases=4 Linecode=LC6 Length=0.24555 Units=m
New Line.LINE257 Bus1=251.1.2.3.4 Bus2=258.1.2.3.4 phases=4 Linecode=LC6 Length=0.16293 Units=m
New Line.LINE258 Bus1=252.1.2.3.4 Bus2=259.1.2.3.4 phases=4 Linecode=LC6 Length=0.3699 Units=m
New Line.LINE259 Bus1=253.1.2.3.4 Bus2=260.1.2.3.4 phases=4 Linecode=LC6 Length=0.17041 Units=m
New Line.LINE260 Bus1=254.1.2.3.4 Bus2=261.1.2.3.4 phases=4 Linecode=LC5 Length=0.06866 Units=m
New Line.LINE261 Bus1=255.1.2.3.4 Bus2=262.1.2.3.4 phases=4 Linecode=LC8 Length=0.77102 Units=m
New Line.LINE262 Bus1=256.1.2.3.4 Bus2=263.1.2.3.4 phases=4 Linecode=LC6 Length=0.064476 Units=m
New Line.LINE263 Bus1=256.1.2.3.4 Bus2=264.1.2.3.4 phases=4 Linecode=LC4 Length=9.6209 Units=m
New Line.LINE264 Bus1=257.1.2.3.4 Bus2=265.1.2.3.4 phases=4 Linecode=LC6 Length=0.33577 Units=m
New Line.LINE265 Bus1=258.1.2.3.4 Bus2=266.1.2.3.4 phases=4 Linecode=LC6 Length=0.91446 Units=m
New Line.LINE266 Bus1=259.1.2.3.4 Bus2=267.1.2.3.4 phases=4 Linecode=LC6 Length=0.39048 Units=m
New Line.LINE267 Bus1=260.1.2.3.4 Bus2=268.1.2.3.4 phases=4 Linecode=LC6 Length=7.4521 Units=m
New Line.LINE268 Bus1=261.1.2.3.4 Bus2=269.1.2.3.4 phases=4 Linecode=LC5 Length=0.11353 Units=m
New Line.LINE269 Bus1=262.1.2.3.4 Bus2=270.1.2.3.4 phases=4 Linecode=LC8 Length=5.1288 Units=m
New Line.LINE270 Bus1=263.1.2.3.4 Bus2=271.1.2.3.4 phases=4 Linecode=LC6 Length=0.04 Units=m
New Line.LINE271 Bus1=264.1.2.3.4 Bus2=272.1.2.3.4 phases=4 Linecode=LC6 Length=0.1203 Units=m
New Line.LINE272 Bus1=264.1.2.3.4 Bus2=273.1.2.3.4 phases=4 Linecode=LC4 Length=3.7559 Units=m
New Line.LINE273 Bus1=265.1.2.3.4 Bus2=274.1.2.3.4 phases=4 Linecode=LC6 Length=0.049497 Units=m
New Line.LINE274 Bus1=266.1.2.3.4 Bus2=275.1.2.3.4 phases=4 Linecode=LC6 Length=0.51742 Units=m
New Line.LINE275 Bus1=267.1.2.3.4 Bus2=276.1.2.3.4 phases=4 Linecode=LC6 Length=0.35574 Units=m
New Line.LINE276 Bus1=268.1.2.3.4 Bus2=277.1.2.3.4 phases=4 Linecode=LC6 Length=4.6074 Units=m
New Line.LINE277 Bus1=269.1.2.3.4 Bus2=278.1.2.3.4 phases=4 Linecode=LC5 Length=0.46795 Units=m
New Line.LINE278 Bus1=270.1.2.3.4 Bus2=279.1.2.3.4 phases=4 Linecode=LC6 Length=0.4526 Units=m
New Line.LINE279 Bus1=270.1.2.3.4 Bus2=280.1.2.3.4 phases=4 Linecode=LC8 Length=1.4236 Units=m
New Line.LINE280 Bus1=271.1.2.3.4 Bus2=281.1.2.3.4 phases=4 Linecode=LC6 Length=0.051196 Units=m
New Line.LINE281 Bus1=272.1.2.3.4 Bus2=282.1.2.3.4 phases=4 Linecode=LC6 Length=0.13841 Units=m
New Line.LINE282 Bus1=273.1.2.3.4 Bus2=283.1.2.3.4 phases=4 Linecode=LC4 Length=5.9248 Units=m
New Line.LINE283 Bus1=274.1.2.3.4 Bus2=284.1.2.3.4 phases=4 Linecode=LC6 Length=0.051314 Units=m
New Line.LINE284 Bus1=276.1.2.3.4 Bus2=285.1.2.3.4 phases=4 Linecode=LC6 Length=0.31608 Units=m
New Line.LINE285 Bus1=278.1.2.3.4 Bus2=286.1.2.3.4 phases=4 Linecode=LC5 Length=0.14765 Units=m
New Line.LINE286 Bus1=279.1.2.3.4 Bus2=287.1.2.3.4 phases=4 Linecode=LC6 Length=0.25283 Units=m
New Line.LINE287 Bus1=280.1.2.3.4 Bus2=288.1.2.3.4 phases=4 Linecode=LC8 Length=3.8014 Units=m
New Line.LINE288 Bus1=281.1.2.3.4 Bus2=289.1.2.3.4 phases=4 Linecode=LC6 Length=0.046573 Units=m
New Line.LINE289 Bus1=282.1.2.3.4 Bus2=290.1.2.3.4 phases=4 Linecode=LC6 Length=0.18248 Units=m
New Line.LINE290 Bus1=283.1.2.3.4 Bus2=291.1.2.3.4 phases=4 Linecode=LC6 Length=0.73761 Units=m
New Line.LINE291 Bus1=283.1.2.3.4 Bus2=292.1.2.3.4 phases=4 Linecode=LC4 Length=9.3951 Units=m
New Line.LINE292 Bus1=284.1.2.3.4 Bus2=293.1.2.3.4 phases=4 Linecode=LC6 Length=0.0586 Units=m
New Line.LINE293 Bus1=285.1.2.3.4 Bus2=294.1.2.3.4 phases=4 Linecode=LC6 Length=5.7414 Units=m
New Line.LINE294 Bus1=286.1.2.3.4 Bus2=295.1.2.3.4 phases=4 Linecode=LC5 Length=0.067683 Units=m
New Line.LINE295 Bus1=287.1.2.3.4 Bus2=296.1.2.3.4 phases=4 Linecode=LC6 Length=0.17593 Units=m
New Line.LINE296 Bus1=288.1.2.3.4 Bus2=297.1.2.3.4 phases=4 Linecode=LC8 Length=9.0346 Units=m
New Line.LINE297 Bus1=289.1.2.3.4 Bus2=298.1.2.3.4 phases=4 Linecode=LC6 Length=0.091606 Units=m
New Line.LINE298 Bus1=290.1.2.3.4 Bus2=299.1.2.3.4 phases=4 Linecode=LC6 Length=0.19252 Units=m
New Line.LINE299 Bus1=291.1.2.3.4 Bus2=300.1.2.3.4 phases=4 Linecode=LC6 Length=0.31936 Units=m
New Line.LINE300 Bus1=292.1.2.3.4 Bus2=301.1.2.3.4 phases=4 Linecode=LC6 Length=0.55576 Units=m
New Line.LINE301 Bus1=292.1.2.3.4 Bus2=302.1.2.3.4 phases=4 Linecode=LC4 Length=2.6433 Units=m
New Line.LINE302 Bus1=293.1.2.3.4 Bus2=303.1.2.3.4 phases=4 Linecode=LC6 Length=0.05346 Units=m
New Line.LINE303 Bus1=294.1.2.3.4 Bus2=304.1.2.3.4 phases=4 Linecode=LC6 Length=1.0596 Units=m
New Line.LINE304 Bus1=295.1.2.3.4 Bus2=305.1.2.3.4 phases=4 Linecode=LC5 Length=0.12788 Units=m
New Line.LINE305 Bus1=296.1.2.3.4 Bus2=306.1.2.3.4 phases=4 Linecode=LC6 Length=0.17824 Units=m
New Line.LINE306 Bus1=297.1.2.3.4 Bus2=307.1.2.3.4 phases=4 Linecode=LC8 Length=2.5831 Units=m
New Line.LINE307 Bus1=298.1.2.3.4 Bus2=308.1.2.3.4 phases=4 Linecode=LC6 Length=0.059077 Units=m
New Line.LINE308 Bus1=299.1.2.3.4 Bus2=309.1.2.3.4 phases=4 Linecode=LC6 Length=0.10871 Units=m
New Line.LINE309 Bus1=300.1.2.3.4 Bus2=310.1.2.3.4 phases=4 Linecode=LC6 Length=0.39744 Units=m
New Line.LINE310 Bus1=301.1.2.3.4 Bus2=311.1.2.3.4 phases=4 Linecode=LC6 Length=0.27601 Units=m
New Line.LINE311 Bus1=302.1.2.3.4 Bus2=312.1.2.3.4 phases=4 Linecode=LC6 Length=0.2409 Units=m
New Line.LINE312 Bus1=302.1.2.3.4 Bus2=313.1.2.3.4 phases=4 Linecode=LC4 Length=1.4379 Units=m
New Line.LINE313 Bus1=303.1.2.3.4 Bus2=314.1.2.3.4 phases=4 Linecode=LC6 Length=0.056079 Units=m
New Line.LINE314 Bus1=304.1.2.3.4 Bus2=315.1.2.3.4 phases=4 Linecode=LC6 Length=4.8897 Units=m